* NGSPICE file created from mult_seq_16x16.ext - technology: sky130A

* Black-box entry subcircuit for sky130_fd_sc_hd__fill_1 abstract view
.subckt sky130_fd_sc_hd__fill_1 VGND VNB VPB VPWR
.ends

* Black-box entry subcircuit for sky130_fd_sc_hd__a221o_1 abstract view
.subckt sky130_fd_sc_hd__a221o_1 A1 A2 B1 B2 C1 VGND VNB VPB VPWR X
.ends

* Black-box entry subcircuit for sky130_fd_sc_hd__a32o_1 abstract view
.subckt sky130_fd_sc_hd__a32o_1 A1 A2 A3 B1 B2 VGND VNB VPB VPWR X
.ends

* Black-box entry subcircuit for sky130_fd_sc_hd__dfxtp_1 abstract view
.subckt sky130_fd_sc_hd__dfxtp_1 CLK D VGND VNB VPB VPWR Q
.ends

* Black-box entry subcircuit for sky130_fd_sc_hd__a21oi_1 abstract view
.subckt sky130_fd_sc_hd__a21oi_1 A1 A2 B1 VGND VNB VPB VPWR Y
.ends

* Black-box entry subcircuit for sky130_fd_sc_hd__and2_1 abstract view
.subckt sky130_fd_sc_hd__and2_1 A B VGND VNB VPB VPWR X
.ends

* Black-box entry subcircuit for sky130_fd_sc_hd__a22o_1 abstract view
.subckt sky130_fd_sc_hd__a22o_1 A1 A2 B1 B2 VGND VNB VPB VPWR X
.ends

* Black-box entry subcircuit for sky130_fd_sc_hd__decap_6 abstract view
.subckt sky130_fd_sc_hd__decap_6 VGND VNB VPB VPWR
.ends

* Black-box entry subcircuit for sky130_fd_sc_hd__decap_8 abstract view
.subckt sky130_fd_sc_hd__decap_8 VGND VNB VPB VPWR
.ends

* Black-box entry subcircuit for sky130_fd_sc_hd__fill_2 abstract view
.subckt sky130_fd_sc_hd__fill_2 VGND VNB VPB VPWR
.ends

* Black-box entry subcircuit for sky130_fd_sc_hd__tapvpwrvgnd_1 abstract view
.subckt sky130_fd_sc_hd__tapvpwrvgnd_1 VGND VPWR
.ends

* Black-box entry subcircuit for sky130_fd_sc_hd__clkbuf_4 abstract view
.subckt sky130_fd_sc_hd__clkbuf_4 A VGND VNB VPB VPWR X
.ends

* Black-box entry subcircuit for sky130_fd_sc_hd__dfxtp_2 abstract view
.subckt sky130_fd_sc_hd__dfxtp_2 CLK D VGND VNB VPB VPWR Q
.ends

* Black-box entry subcircuit for sky130_fd_sc_hd__and3_1 abstract view
.subckt sky130_fd_sc_hd__and3_1 A B C VGND VNB VPB VPWR X
.ends

* Black-box entry subcircuit for sky130_fd_sc_hd__nand3_1 abstract view
.subckt sky130_fd_sc_hd__nand3_1 A B C VGND VNB VPB VPWR Y
.ends

* Black-box entry subcircuit for sky130_fd_sc_hd__o21a_1 abstract view
.subckt sky130_fd_sc_hd__o21a_1 A1 A2 B1 VGND VNB VPB VPWR X
.ends

* Black-box entry subcircuit for sky130_fd_sc_hd__xor2_1 abstract view
.subckt sky130_fd_sc_hd__xor2_1 A B VGND VNB VPB VPWR X
.ends

* Black-box entry subcircuit for sky130_fd_sc_hd__or2_1 abstract view
.subckt sky130_fd_sc_hd__or2_1 A B VGND VNB VPB VPWR X
.ends

* Black-box entry subcircuit for sky130_fd_sc_hd__decap_3 abstract view
.subckt sky130_fd_sc_hd__decap_3 VGND VNB VPB VPWR
.ends

* Black-box entry subcircuit for sky130_fd_sc_hd__nor2_1 abstract view
.subckt sky130_fd_sc_hd__nor2_1 A B VGND VNB VPB VPWR Y
.ends

* Black-box entry subcircuit for sky130_fd_sc_hd__inv_2 abstract view
.subckt sky130_fd_sc_hd__inv_2 A VGND VNB VPB VPWR Y
.ends

* Black-box entry subcircuit for sky130_fd_sc_hd__decap_4 abstract view
.subckt sky130_fd_sc_hd__decap_4 VGND VNB VPB VPWR
.ends

* Black-box entry subcircuit for sky130_fd_sc_hd__dlygate4sd3_1 abstract view
.subckt sky130_fd_sc_hd__dlygate4sd3_1 A VGND VNB VPB VPWR X
.ends

* Black-box entry subcircuit for sky130_fd_sc_hd__buf_2 abstract view
.subckt sky130_fd_sc_hd__buf_2 A VGND VNB VPB VPWR X
.ends

* Black-box entry subcircuit for sky130_fd_sc_hd__nand2_1 abstract view
.subckt sky130_fd_sc_hd__nand2_1 A B VGND VNB VPB VPWR Y
.ends

* Black-box entry subcircuit for sky130_fd_sc_hd__o211a_1 abstract view
.subckt sky130_fd_sc_hd__o211a_1 A1 A2 B1 C1 VGND VNB VPB VPWR X
.ends

* Black-box entry subcircuit for sky130_ef_sc_hd__decap_12 abstract view
.subckt sky130_ef_sc_hd__decap_12 VGND VPWR VPB VNB
.ends

* Black-box entry subcircuit for sky130_fd_sc_hd__a211o_1 abstract view
.subckt sky130_fd_sc_hd__a211o_1 A1 A2 B1 C1 VGND VNB VPB VPWR X
.ends

* Black-box entry subcircuit for sky130_fd_sc_hd__buf_1 abstract view
.subckt sky130_fd_sc_hd__buf_1 A VGND VNB VPB VPWR X
.ends

* Black-box entry subcircuit for sky130_fd_sc_hd__mux2_1 abstract view
.subckt sky130_fd_sc_hd__mux2_1 A0 A1 S VGND VNB VPB VPWR X
.ends

* Black-box entry subcircuit for sky130_fd_sc_hd__xnor2_1 abstract view
.subckt sky130_fd_sc_hd__xnor2_1 A B VGND VNB VPB VPWR Y
.ends

* Black-box entry subcircuit for sky130_fd_sc_hd__a31oi_1 abstract view
.subckt sky130_fd_sc_hd__a31oi_1 A1 A2 A3 B1 VGND VNB VPB VPWR Y
.ends

* Black-box entry subcircuit for sky130_fd_sc_hd__a21o_1 abstract view
.subckt sky130_fd_sc_hd__a21o_1 A1 A2 B1 VGND VNB VPB VPWR X
.ends

* Black-box entry subcircuit for sky130_fd_sc_hd__xor2_2 abstract view
.subckt sky130_fd_sc_hd__xor2_2 A B VGND VNB VPB VPWR X
.ends

* Black-box entry subcircuit for sky130_fd_sc_hd__clkbuf_16 abstract view
.subckt sky130_fd_sc_hd__clkbuf_16 A VGND VNB VPB VPWR X
.ends

* Black-box entry subcircuit for sky130_fd_sc_hd__xnor2_2 abstract view
.subckt sky130_fd_sc_hd__xnor2_2 A B VGND VNB VPB VPWR Y
.ends

* Black-box entry subcircuit for sky130_fd_sc_hd__o221a_1 abstract view
.subckt sky130_fd_sc_hd__o221a_1 A1 A2 B1 B2 C1 VGND VNB VPB VPWR X
.ends

* Black-box entry subcircuit for sky130_fd_sc_hd__nor2_2 abstract view
.subckt sky130_fd_sc_hd__nor2_2 A B VGND VNB VPB VPWR Y
.ends

* Black-box entry subcircuit for sky130_fd_sc_hd__a31o_1 abstract view
.subckt sky130_fd_sc_hd__a31o_1 A1 A2 A3 B1 VGND VNB VPB VPWR X
.ends

* Black-box entry subcircuit for sky130_fd_sc_hd__clkbuf_2 abstract view
.subckt sky130_fd_sc_hd__clkbuf_2 A VGND VNB VPB VPWR X
.ends

* Black-box entry subcircuit for sky130_fd_sc_hd__o21ai_4 abstract view
.subckt sky130_fd_sc_hd__o21ai_4 A1 A2 B1 VGND VNB VPB VPWR Y
.ends

* Black-box entry subcircuit for sky130_fd_sc_hd__a41o_1 abstract view
.subckt sky130_fd_sc_hd__a41o_1 A1 A2 A3 A4 B1 VGND VNB VPB VPWR X
.ends

* Black-box entry subcircuit for sky130_fd_sc_hd__o21ai_2 abstract view
.subckt sky130_fd_sc_hd__o21ai_2 A1 A2 B1 VGND VNB VPB VPWR Y
.ends

* Black-box entry subcircuit for sky130_fd_sc_hd__a22oi_1 abstract view
.subckt sky130_fd_sc_hd__a22oi_1 A1 A2 B1 B2 VGND VNB VPB VPWR Y
.ends

* Black-box entry subcircuit for sky130_fd_sc_hd__or2_2 abstract view
.subckt sky130_fd_sc_hd__or2_2 A B VGND VNB VPB VPWR X
.ends

* Black-box entry subcircuit for sky130_fd_sc_hd__clkbuf_1 abstract view
.subckt sky130_fd_sc_hd__clkbuf_1 A VGND VNB VPB VPWR X
.ends

* Black-box entry subcircuit for sky130_fd_sc_hd__and2b_1 abstract view
.subckt sky130_fd_sc_hd__and2b_1 A_N B VGND VNB VPB VPWR X
.ends

* Black-box entry subcircuit for sky130_fd_sc_hd__and4_1 abstract view
.subckt sky130_fd_sc_hd__and4_1 A B C D VGND VNB VPB VPWR X
.ends

* Black-box entry subcircuit for sky130_fd_sc_hd__dlymetal6s2s_1 abstract view
.subckt sky130_fd_sc_hd__dlymetal6s2s_1 A VGND VNB VPB VPWR X
.ends

* Black-box entry subcircuit for sky130_fd_sc_hd__o21ai_1 abstract view
.subckt sky130_fd_sc_hd__o21ai_1 A1 A2 B1 VGND VNB VPB VPWR Y
.ends

* Black-box entry subcircuit for sky130_fd_sc_hd__o31ai_1 abstract view
.subckt sky130_fd_sc_hd__o31ai_1 A1 A2 A3 B1 VGND VNB VPB VPWR Y
.ends

* Black-box entry subcircuit for sky130_fd_sc_hd__nor2_4 abstract view
.subckt sky130_fd_sc_hd__nor2_4 A B VGND VNB VPB VPWR Y
.ends

* Black-box entry subcircuit for sky130_fd_sc_hd__o31ai_4 abstract view
.subckt sky130_fd_sc_hd__o31ai_4 A1 A2 A3 B1 VGND VNB VPB VPWR Y
.ends

* Black-box entry subcircuit for sky130_fd_sc_hd__nand2_4 abstract view
.subckt sky130_fd_sc_hd__nand2_4 A B VGND VNB VPB VPWR Y
.ends

* Black-box entry subcircuit for sky130_fd_sc_hd__o211ai_2 abstract view
.subckt sky130_fd_sc_hd__o211ai_2 A1 A2 B1 C1 VGND VNB VPB VPWR Y
.ends

* Black-box entry subcircuit for sky130_fd_sc_hd__a31oi_4 abstract view
.subckt sky130_fd_sc_hd__a31oi_4 A1 A2 A3 B1 VGND VNB VPB VPWR Y
.ends

* Black-box entry subcircuit for sky130_fd_sc_hd__a41oi_4 abstract view
.subckt sky130_fd_sc_hd__a41oi_4 A1 A2 A3 A4 B1 VGND VNB VPB VPWR Y
.ends

* Black-box entry subcircuit for sky130_fd_sc_hd__a21oi_2 abstract view
.subckt sky130_fd_sc_hd__a21oi_2 A1 A2 B1 VGND VNB VPB VPWR Y
.ends

.subckt mult_seq_16x16 VGND VPWR clk done mcand[0] mcand[10] mcand[11] mcand[12] mcand[13]
+ mcand[14] mcand[15] mcand[1] mcand[2] mcand[3] mcand[4] mcand[5] mcand[6] mcand[7]
+ mcand[8] mcand[9] mplier[0] mplier[10] mplier[11] mplier[12] mplier[13] mplier[14]
+ mplier[15] mplier[1] mplier[2] mplier[3] mplier[4] mplier[5] mplier[6] mplier[7]
+ mplier[8] mplier[9] product[0] product[10] product[11] product[12] product[13] product[14]
+ product[15] product[16] product[17] product[18] product[19] product[1] product[20]
+ product[21] product[22] product[23] product[24] product[25] product[26] product[27]
+ product[28] product[29] product[2] product[30] product[31] product[3] product[4]
+ product[5] product[6] product[7] product[8] product[9] st
XFILLER_0_23_18 VGND VGND VPWR VPWR sky130_fd_sc_hd__fill_1
X_294_ net50 net14 _110_ _112_ _113_ VGND VGND VPWR VPWR _114_ sky130_fd_sc_hd__a221o_1
X_363_ _057_ _168_ _174_ _047_ acu_act\[32\] VGND VGND VPWR VPWR _175_ sky130_fd_sc_hd__a32o_1
X_432_ clknet_2_1__leaf_clk _013_ VGND VGND VPWR VPWR net54 sky130_fd_sc_hd__dfxtp_1
XFILLER_0_1_141 VGND VGND VPWR VPWR sky130_fd_sc_hd__fill_1
X_415_ contador_act\[2\] _204_ net67 VGND VGND VPWR VPWR _207_ sky130_fd_sc_hd__a21oi_1
X_346_ _158_ _159_ VGND VGND VPWR VPWR _160_ sky130_fd_sc_hd__and2_1
X_277_ _091_ _097_ _098_ VGND VGND VPWR VPWR _099_ sky130_fd_sc_hd__a21oi_1
X_329_ net53 net2 net3 net54 VGND VGND VPWR VPWR _145_ sky130_fd_sc_hd__a22o_1
XFILLER_0_10_85 VGND VGND VPWR VPWR sky130_fd_sc_hd__decap_6
XFILLER_0_19_147 VGND VGND VPWR VPWR sky130_fd_sc_hd__decap_8
XFILLER_0_19_125 VGND VGND VPWR VPWR sky130_fd_sc_hd__fill_2
XFILLER_0_25_139 VGND VGND VPWR VPWR sky130_fd_sc_hd__fill_1
XFILLER_0_25_128 VGND VGND VPWR VPWR sky130_fd_sc_hd__fill_1
XTAP_TAPCELL_ROW_5_67 VGND VPWR sky130_fd_sc_hd__tapvpwrvgnd_1
XFILLER_0_16_117 VGND VGND VPWR VPWR sky130_fd_sc_hd__fill_1
Xoutput42 net42 VGND VGND VPWR VPWR product[16] sky130_fd_sc_hd__clkbuf_4
Xoutput53 net53 VGND VGND VPWR VPWR product[26] sky130_fd_sc_hd__clkbuf_4
Xoutput64 net64 VGND VGND VPWR VPWR product[7] sky130_fd_sc_hd__clkbuf_4
X_431_ clknet_2_3__leaf_clk _012_ VGND VGND VPWR VPWR net53 sky130_fd_sc_hd__dfxtp_2
X_293_ net49 net13 _104_ VGND VGND VPWR VPWR _113_ sky130_fd_sc_hd__and3_1
X_362_ _158_ _169_ _173_ VGND VGND VPWR VPWR _174_ sky130_fd_sc_hd__nand3_1
X_414_ net85 _204_ _206_ VGND VGND VPWR VPWR _037_ sky130_fd_sc_hd__o21a_1
X_276_ net49 net13 VGND VGND VPWR VPWR _098_ sky130_fd_sc_hd__xor2_1
X_345_ net58 net6 VGND VGND VPWR VPWR _159_ sky130_fd_sc_hd__or2_1
XPHY_EDGE_ROW_21_Right_21 VGND VGND VPWR VPWR sky130_fd_sc_hd__decap_3
XPHY_EDGE_ROW_12_Right_12 VGND VGND VPWR VPWR sky130_fd_sc_hd__decap_3
X_259_ _081_ _082_ VGND VGND VPWR VPWR _083_ sky130_fd_sc_hd__nor2_1
X_328_ _136_ VGND VGND VPWR VPWR _144_ sky130_fd_sc_hd__inv_2
XFILLER_0_9_39 VGND VGND VPWR VPWR sky130_fd_sc_hd__decap_4
XFILLER_0_19_51 VGND VGND VPWR VPWR sky130_fd_sc_hd__decap_4
XFILLER_0_10_75 VGND VGND VPWR VPWR sky130_fd_sc_hd__fill_1
XTAP_TAPCELL_ROW_5_68 VGND VPWR sky130_fd_sc_hd__tapvpwrvgnd_1
XFILLER_0_24_151 VGND VGND VPWR VPWR sky130_fd_sc_hd__fill_1
Xhold20 net60 VGND VGND VPWR VPWR net86 sky130_fd_sc_hd__dlygate4sd3_1
XFILLER_0_1_51 VGND VGND VPWR VPWR sky130_fd_sc_hd__fill_1
XPHY_EDGE_ROW_6_Right_6 VGND VGND VPWR VPWR sky130_fd_sc_hd__decap_3
Xoutput65 net65 VGND VGND VPWR VPWR product[8] sky130_fd_sc_hd__clkbuf_4
Xoutput43 net43 VGND VGND VPWR VPWR product[17] sky130_fd_sc_hd__clkbuf_4
Xoutput54 net54 VGND VGND VPWR VPWR product[27] sky130_fd_sc_hd__buf_2
X_430_ clknet_2_3__leaf_clk _011_ VGND VGND VPWR VPWR net52 sky130_fd_sc_hd__dfxtp_1
X_292_ _081_ _090_ _091_ VGND VGND VPWR VPWR _112_ sky130_fd_sc_hd__o21a_1
X_361_ _159_ _163_ VGND VGND VPWR VPWR _173_ sky130_fd_sc_hd__nand2_1
XFILLER_0_1_121 VGND VGND VPWR VPWR sky130_fd_sc_hd__decap_4
XFILLER_0_0_6 VGND VGND VPWR VPWR sky130_fd_sc_hd__fill_1
X_413_ net85 _204_ _181_ VGND VGND VPWR VPWR _206_ sky130_fd_sc_hd__a21oi_1
X_275_ _090_ _093_ VGND VGND VPWR VPWR _097_ sky130_fd_sc_hd__or2_1
X_344_ net58 net6 VGND VGND VPWR VPWR _158_ sky130_fd_sc_hd__nand2_1
XFILLER_0_19_41 VGND VGND VPWR VPWR sky130_fd_sc_hd__fill_2
XTAP_TAPCELL_ROW_18_99 VGND VPWR sky130_fd_sc_hd__tapvpwrvgnd_1
X_258_ net47 net11 VGND VGND VPWR VPWR _082_ sky130_fd_sc_hd__nor2_1
X_327_ _141_ _142_ VGND VGND VPWR VPWR _143_ sky130_fd_sc_hd__nor2_1
XFILLER_0_10_43 VGND VGND VPWR VPWR sky130_fd_sc_hd__fill_2
XFILLER_0_24_141 VGND VGND VPWR VPWR sky130_fd_sc_hd__decap_4
XPHY_EDGE_ROW_12_Left_38 VGND VGND VPWR VPWR sky130_fd_sc_hd__decap_3
Xhold10 net61 VGND VGND VPWR VPWR net76 sky130_fd_sc_hd__dlygate4sd3_1
Xhold21 net38 VGND VGND VPWR VPWR net87 sky130_fd_sc_hd__dlygate4sd3_1
Xoutput44 net44 VGND VGND VPWR VPWR product[18] sky130_fd_sc_hd__clkbuf_4
Xoutput66 net66 VGND VGND VPWR VPWR product[9] sky130_fd_sc_hd__clkbuf_4
XTAP_TAPCELL_ROW_2_59 VGND VPWR sky130_fd_sc_hd__tapvpwrvgnd_1
Xoutput55 net55 VGND VGND VPWR VPWR product[28] sky130_fd_sc_hd__clkbuf_4
XPHY_EDGE_ROW_15_Left_41 VGND VGND VPWR VPWR sky130_fd_sc_hd__decap_3
X_291_ _083_ _092_ _110_ VGND VGND VPWR VPWR _111_ sky130_fd_sc_hd__and3_1
X_360_ _167_ _172_ _056_ VGND VGND VPWR VPWR _017_ sky130_fd_sc_hd__o21a_1
XFILLER_0_7_51 VGND VGND VPWR VPWR sky130_fd_sc_hd__decap_4
XPHY_EDGE_ROW_0_Left_26 VGND VGND VPWR VPWR sky130_fd_sc_hd__decap_3
X_412_ net80 _201_ _205_ VGND VGND VPWR VPWR _036_ sky130_fd_sc_hd__o21a_1
X_274_ _048_ _095_ _096_ _056_ VGND VGND VPWR VPWR _007_ sky130_fd_sc_hd__o211a_1
X_343_ _048_ _156_ _157_ _056_ VGND VGND VPWR VPWR _015_ sky130_fd_sc_hd__o211a_1
XFILLER_0_24_20 VGND VGND VPWR VPWR sky130_fd_sc_hd__fill_2
XFILLER_0_4_85 VGND VPWR VPWR VGND sky130_ef_sc_hd__decap_12
X_257_ net47 net11 VGND VGND VPWR VPWR _081_ sky130_fd_sc_hd__and2_1
X_326_ net55 net4 VGND VGND VPWR VPWR _142_ sky130_fd_sc_hd__nor2_1
X_309_ net53 _052_ _048_ _127_ VGND VGND VPWR VPWR _128_ sky130_fd_sc_hd__a211o_1
Xhold11 _023_ VGND VGND VPWR VPWR net77 sky130_fd_sc_hd__dlygate4sd3_1
XFILLER_0_21_101 VGND VGND VPWR VPWR sky130_fd_sc_hd__fill_1
Xhold22 net65 VGND VGND VPWR VPWR net88 sky130_fd_sc_hd__dlygate4sd3_1
XFILLER_0_12_134 VGND VGND VPWR VPWR sky130_fd_sc_hd__fill_1
Xoutput45 net45 VGND VGND VPWR VPWR product[19] sky130_fd_sc_hd__clkbuf_4
Xoutput34 net34 VGND VGND VPWR VPWR done sky130_fd_sc_hd__buf_2
Xoutput56 net56 VGND VGND VPWR VPWR product[29] sky130_fd_sc_hd__clkbuf_4
XFILLER_0_7_85 VGND VGND VPWR VPWR sky130_fd_sc_hd__fill_1
X_290_ _098_ _103_ _104_ VGND VGND VPWR VPWR _110_ sky130_fd_sc_hd__and3_1
XFILLER_0_13_55 VGND VGND VPWR VPWR sky130_fd_sc_hd__fill_1
X_411_ _181_ _204_ VGND VGND VPWR VPWR _205_ sky130_fd_sc_hd__nor2_1
X_273_ _080_ _048_ VGND VGND VPWR VPWR _096_ sky130_fd_sc_hd__nand2_1
X_342_ net56 _053_ VGND VGND VPWR VPWR _157_ sky130_fd_sc_hd__or2_1
XFILLER_0_24_98 VGND VGND VPWR VPWR sky130_fd_sc_hd__decap_4
XFILLER_0_4_42 VGND VGND VPWR VPWR sky130_fd_sc_hd__fill_1
XFILLER_0_4_97 VGND VPWR VPWR VGND sky130_ef_sc_hd__decap_12
XFILLER_0_19_87 VGND VGND VPWR VPWR sky130_fd_sc_hd__decap_3
X_256_ net48 VGND VGND VPWR VPWR _080_ sky130_fd_sc_hd__inv_2
X_325_ net55 net4 VGND VGND VPWR VPWR _141_ sky130_fd_sc_hd__and2_1
XFILLER_0_19_107 VGND VGND VPWR VPWR sky130_fd_sc_hd__decap_4
XFILLER_0_18_151 VGND VGND VPWR VPWR sky130_fd_sc_hd__decap_4
XFILLER_0_21_22 VGND VGND VPWR VPWR sky130_fd_sc_hd__fill_1
X_308_ _062_ _126_ VGND VGND VPWR VPWR _127_ sky130_fd_sc_hd__nor2_1
X_239_ net44 _062_ _064_ _065_ _047_ VGND VGND VPWR VPWR _066_ sky130_fd_sc_hd__a221o_1
Xhold12 contador_act\[4\] VGND VGND VPWR VPWR net78 sky130_fd_sc_hd__buf_1
XFILLER_0_15_110 VGND VGND VPWR VPWR sky130_fd_sc_hd__fill_2
XTAP_TAPCELL_ROW_10_80 VGND VPWR sky130_fd_sc_hd__tapvpwrvgnd_1
Xhold23 net43 VGND VGND VPWR VPWR net89 sky130_fd_sc_hd__dlygate4sd3_1
XFILLER_0_21_113 VGND VGND VPWR VPWR sky130_fd_sc_hd__decap_3
XTAP_TAPCELL_ROW_6_70 VGND VPWR sky130_fd_sc_hd__tapvpwrvgnd_1
XFILLER_0_8_107 VGND VGND VPWR VPWR sky130_fd_sc_hd__decap_4
Xoutput35 net35 VGND VGND VPWR VPWR product[0] sky130_fd_sc_hd__clkbuf_4
Xoutput57 net57 VGND VGND VPWR VPWR product[2] sky130_fd_sc_hd__clkbuf_4
Xoutput46 net46 VGND VGND VPWR VPWR product[1] sky130_fd_sc_hd__clkbuf_4
XPHY_EDGE_ROW_19_Right_19 VGND VGND VPWR VPWR sky130_fd_sc_hd__decap_3
XFILLER_0_4_154 VGND VGND VPWR VPWR sky130_fd_sc_hd__fill_1
X_410_ contador_act\[1\] _201_ VGND VGND VPWR VPWR _204_ sky130_fd_sc_hd__and2_1
X_272_ net49 _094_ _057_ VGND VGND VPWR VPWR _095_ sky130_fd_sc_hd__mux2_1
X_341_ net58 _155_ _057_ VGND VGND VPWR VPWR _156_ sky130_fd_sc_hd__mux2_1
X_255_ net92 _061_ _056_ _079_ VGND VGND VPWR VPWR _005_ sky130_fd_sc_hd__o211a_1
X_324_ net54 _061_ _055_ _140_ VGND VGND VPWR VPWR _013_ sky130_fd_sc_hd__o211a_1
XFILLER_0_19_55 VGND VGND VPWR VPWR sky130_fd_sc_hd__fill_1
XFILLER_0_19_33 VGND VGND VPWR VPWR sky130_fd_sc_hd__decap_8
XFILLER_0_18_141 VGND VGND VPWR VPWR sky130_fd_sc_hd__decap_6
X_307_ _124_ _125_ VGND VGND VPWR VPWR _126_ sky130_fd_sc_hd__xnor2_1
XFILLER_0_1_55 VGND VGND VPWR VPWR sky130_fd_sc_hd__fill_1
X_238_ net42 net1 _063_ _051_ VGND VGND VPWR VPWR _065_ sky130_fd_sc_hd__a31oi_1
Xhold24 net49 VGND VGND VPWR VPWR net90 sky130_fd_sc_hd__dlygate4sd3_1
Xhold13 net41 VGND VGND VPWR VPWR net79 sky130_fd_sc_hd__dlygate4sd3_1
XTAP_TAPCELL_ROW_10_81 VGND VPWR sky130_fd_sc_hd__tapvpwrvgnd_1
XTAP_TAPCELL_ROW_6_71 VGND VPWR sky130_fd_sc_hd__tapvpwrvgnd_1
XFILLER_0_12_147 VGND VGND VPWR VPWR sky130_fd_sc_hd__decap_8
Xoutput47 net47 VGND VGND VPWR VPWR product[20] sky130_fd_sc_hd__clkbuf_4
Xoutput58 net58 VGND VGND VPWR VPWR product[30] sky130_fd_sc_hd__clkbuf_4
Xoutput36 net36 VGND VGND VPWR VPWR product[10] sky130_fd_sc_hd__buf_2
XFILLER_0_9_6 VGND VGND VPWR VPWR sky130_fd_sc_hd__decap_3
XFILLER_0_7_21 VGND VGND VPWR VPWR sky130_fd_sc_hd__fill_2
XTAP_TAPCELL_ROW_23_112 VGND VPWR sky130_fd_sc_hd__tapvpwrvgnd_1
XFILLER_0_13_57 VGND VPWR VPWR VGND sky130_ef_sc_hd__decap_12
XFILLER_0_13_24 VGND VGND VPWR VPWR sky130_fd_sc_hd__decap_4
XTAP_TAPCELL_ROW_20_104 VGND VPWR sky130_fd_sc_hd__tapvpwrvgnd_1
XPHY_EDGE_ROW_19_Left_45 VGND VGND VPWR VPWR sky130_fd_sc_hd__decap_3
XFILLER_0_24_89 VGND VGND VPWR VPWR sky130_fd_sc_hd__fill_1
XFILLER_0_24_67 VGND VGND VPWR VPWR sky130_fd_sc_hd__fill_1
XFILLER_0_24_12 VGND VGND VPWR VPWR sky130_fd_sc_hd__decap_8
X_271_ _092_ _093_ VGND VGND VPWR VPWR _094_ sky130_fd_sc_hd__xor2_1
X_340_ _153_ _154_ VGND VGND VPWR VPWR _155_ sky130_fd_sc_hd__xnor2_1
X_254_ net47 _052_ _048_ _078_ VGND VGND VPWR VPWR _079_ sky130_fd_sc_hd__a211o_1
X_323_ net55 _052_ _048_ _139_ VGND VGND VPWR VPWR _140_ sky130_fd_sc_hd__a211o_1
XFILLER_0_21_68 VGND VGND VPWR VPWR sky130_fd_sc_hd__decap_3
X_306_ _115_ _118_ _116_ VGND VGND VPWR VPWR _125_ sky130_fd_sc_hd__o21a_1
X_237_ net42 net1 _063_ VGND VGND VPWR VPWR _064_ sky130_fd_sc_hd__a21o_1
Xhold14 contador_act\[1\] VGND VGND VPWR VPWR net80 sky130_fd_sc_hd__dlygate4sd3_1
Xhold25 net53 VGND VGND VPWR VPWR net91 sky130_fd_sc_hd__dlygate4sd3_1
XFILLER_0_15_134 VGND VGND VPWR VPWR sky130_fd_sc_hd__decap_4
XFILLER_0_15_123 VGND VGND VPWR VPWR sky130_fd_sc_hd__fill_1
XFILLER_0_1_89 VGND VGND VPWR VPWR sky130_fd_sc_hd__fill_1
XFILLER_0_1_34 VGND VGND VPWR VPWR sky130_fd_sc_hd__fill_1
XFILLER_0_16_35 VGND VGND VPWR VPWR sky130_fd_sc_hd__decap_8
XFILLER_0_16_13 VGND VPWR VPWR VGND sky130_ef_sc_hd__decap_12
XPHY_EDGE_ROW_7_Left_33 VGND VGND VPWR VPWR sky130_fd_sc_hd__decap_3
XFILLER_0_12_126 VGND VGND VPWR VPWR sky130_fd_sc_hd__decap_8
Xoutput48 net48 VGND VGND VPWR VPWR product[21] sky130_fd_sc_hd__clkbuf_4
Xoutput37 net37 VGND VGND VPWR VPWR product[11] sky130_fd_sc_hd__clkbuf_4
XPHY_EDGE_ROW_1_Right_1 VGND VGND VPWR VPWR sky130_fd_sc_hd__decap_3
Xoutput59 net59 VGND VGND VPWR VPWR product[31] sky130_fd_sc_hd__clkbuf_4
XTAP_TAPCELL_ROW_23_113 VGND VPWR sky130_fd_sc_hd__tapvpwrvgnd_1
XFILLER_0_7_33 VGND VGND VPWR VPWR sky130_fd_sc_hd__fill_1
XFILLER_0_7_55 VGND VGND VPWR VPWR sky130_fd_sc_hd__fill_1
XFILLER_0_7_77 VGND VGND VPWR VPWR sky130_fd_sc_hd__decap_8
XFILLER_0_7_99 VGND VGND VPWR VPWR sky130_fd_sc_hd__decap_3
XTAP_TAPCELL_ROW_3_62 VGND VPWR sky130_fd_sc_hd__tapvpwrvgnd_1
XTAP_TAPCELL_ROW_20_105 VGND VPWR sky130_fd_sc_hd__tapvpwrvgnd_1
XPHY_EDGE_ROW_20_Left_46 VGND VGND VPWR VPWR sky130_fd_sc_hd__decap_3
X_270_ _083_ _086_ _081_ VGND VGND VPWR VPWR _093_ sky130_fd_sc_hd__a21o_1
XFILLER_0_4_78 VGND VGND VPWR VPWR sky130_fd_sc_hd__decap_6
X_399_ net21 _178_ _182_ net69 _043_ VGND VGND VPWR VPWR _197_ sky130_fd_sc_hd__a221o_1
X_322_ _062_ _138_ VGND VGND VPWR VPWR _139_ sky130_fd_sc_hd__nor2_1
XTAP_TAPCELL_ROW_0_52 VGND VPWR sky130_fd_sc_hd__tapvpwrvgnd_1
X_253_ _062_ _077_ VGND VGND VPWR VPWR _078_ sky130_fd_sc_hd__nor2_1
XFILLER_0_18_121 VGND VGND VPWR VPWR sky130_fd_sc_hd__decap_4
X_305_ _122_ _123_ VGND VGND VPWR VPWR _124_ sky130_fd_sc_hd__nand2_1
X_236_ net43 net8 VGND VGND VPWR VPWR _063_ sky130_fd_sc_hd__xor2_2
XFILLER_0_15_102 VGND VGND VPWR VPWR sky130_fd_sc_hd__fill_2
XFILLER_0_21_149 VGND VGND VPWR VPWR sky130_fd_sc_hd__decap_3
Xhold15 net57 VGND VGND VPWR VPWR net81 sky130_fd_sc_hd__dlygate4sd3_1
Xhold26 net45 VGND VGND VPWR VPWR net92 sky130_fd_sc_hd__dlygate4sd3_1
XFILLER_0_16_25 VGND VGND VPWR VPWR sky130_fd_sc_hd__decap_3
X_219_ _047_ VGND VGND VPWR VPWR _048_ sky130_fd_sc_hd__clkbuf_4
XFILLER_0_12_138 VGND VGND VPWR VPWR sky130_fd_sc_hd__fill_2
Xoutput38 net38 VGND VGND VPWR VPWR product[12] sky130_fd_sc_hd__clkbuf_4
Xoutput49 net49 VGND VGND VPWR VPWR product[22] sky130_fd_sc_hd__clkbuf_4
XFILLER_0_7_110 VGND VGND VPWR VPWR sky130_fd_sc_hd__fill_2
XFILLER_0_7_143 VGND VGND VPWR VPWR sky130_fd_sc_hd__fill_2
Xclkbuf_0_clk clk VGND VGND VPWR VPWR clknet_0_clk sky130_fd_sc_hd__clkbuf_16
XPHY_EDGE_ROW_24_Right_24 VGND VGND VPWR VPWR sky130_fd_sc_hd__decap_3
XPHY_EDGE_ROW_15_Right_15 VGND VGND VPWR VPWR sky130_fd_sc_hd__decap_3
XFILLER_0_13_37 VGND VPWR VPWR VGND sky130_ef_sc_hd__decap_12
XFILLER_0_13_15 VGND VGND VPWR VPWR sky130_fd_sc_hd__fill_1
XTAP_TAPCELL_ROW_3_63 VGND VPWR sky130_fd_sc_hd__tapvpwrvgnd_1
XTAP_TAPCELL_ROW_20_106 VGND VPWR sky130_fd_sc_hd__tapvpwrvgnd_1
XFILLER_0_4_68 VGND VGND VPWR VPWR sky130_fd_sc_hd__fill_2
X_398_ net87 _044_ _196_ VGND VGND VPWR VPWR _031_ sky130_fd_sc_hd__o21a_1
XTAP_TAPCELL_ROW_0_53 VGND VPWR sky130_fd_sc_hd__tapvpwrvgnd_1
X_252_ _075_ _076_ VGND VGND VPWR VPWR _077_ sky130_fd_sc_hd__xor2_1
XFILLER_0_10_16 VGND VGND VPWR VPWR sky130_fd_sc_hd__decap_3
XFILLER_0_10_27 VGND VGND VPWR VPWR sky130_fd_sc_hd__fill_1
X_321_ _136_ _137_ VGND VGND VPWR VPWR _138_ sky130_fd_sc_hd__xnor2_1
XFILLER_0_18_111 VGND VGND VPWR VPWR sky130_fd_sc_hd__fill_1
X_304_ net52 net16 VGND VGND VPWR VPWR _123_ sky130_fd_sc_hd__or2_1
X_235_ _051_ VGND VGND VPWR VPWR _062_ sky130_fd_sc_hd__clkbuf_4
Xhold16 net62 VGND VGND VPWR VPWR net82 sky130_fd_sc_hd__dlygate4sd3_1
Xhold27 net41 VGND VGND VPWR VPWR net93 sky130_fd_sc_hd__dlygate4sd3_1
X_218_ _046_ VGND VGND VPWR VPWR _047_ sky130_fd_sc_hd__buf_2
Xoutput39 net39 VGND VGND VPWR VPWR product[13] sky130_fd_sc_hd__clkbuf_4
XFILLER_0_7_57 VGND VGND VPWR VPWR sky130_fd_sc_hd__decap_3
XTAP_TAPCELL_ROW_16_94 VGND VPWR sky130_fd_sc_hd__tapvpwrvgnd_1
XFILLER_0_13_49 VGND VGND VPWR VPWR sky130_fd_sc_hd__decap_6
XFILLER_0_5_3 VGND VGND VPWR VPWR sky130_fd_sc_hd__decap_4
Xclkbuf_2_0__f_clk clknet_0_clk VGND VGND VPWR VPWR clknet_2_0__leaf_clk sky130_fd_sc_hd__clkbuf_16
X_397_ net20 _178_ _182_ net39 _043_ VGND VGND VPWR VPWR _196_ sky130_fd_sc_hd__a221o_1
XFILLER_0_14_70 VGND VPWR VPWR VGND sky130_ef_sc_hd__decap_12
XFILLER_0_19_15 VGND VGND VPWR VPWR sky130_fd_sc_hd__decap_8
X_320_ net53 net2 _133_ VGND VGND VPWR VPWR _137_ sky130_fd_sc_hd__a21oi_1
XTAP_TAPCELL_ROW_0_54 VGND VPWR sky130_fd_sc_hd__tapvpwrvgnd_1
X_251_ _069_ _072_ VGND VGND VPWR VPWR _076_ sky130_fd_sc_hd__nand2_1
X_449_ clknet_2_0__leaf_clk _030_ VGND VGND VPWR VPWR net37 sky130_fd_sc_hd__dfxtp_1
XFILLER_0_18_134 VGND VGND VPWR VPWR sky130_fd_sc_hd__decap_6
XFILLER_0_24_126 VGND VPWR VPWR VGND sky130_ef_sc_hd__decap_12
X_303_ net52 net16 VGND VGND VPWR VPWR _122_ sky130_fd_sc_hd__nand2_1
X_234_ _053_ VGND VGND VPWR VPWR _061_ sky130_fd_sc_hd__clkbuf_4
XFILLER_0_15_148 VGND VGND VPWR VPWR sky130_fd_sc_hd__decap_3
Xhold17 net39 VGND VGND VPWR VPWR net83 sky130_fd_sc_hd__dlygate4sd3_1
X_217_ net34 _045_ VGND VGND VPWR VPWR _046_ sky130_fd_sc_hd__or2_1
XFILLER_0_7_123 VGND VPWR VPWR VGND sky130_ef_sc_hd__decap_12
XFILLER_0_11_140 VGND VGND VPWR VPWR sky130_fd_sc_hd__fill_1
XTAP_TAPCELL_ROW_16_95 VGND VPWR sky130_fd_sc_hd__tapvpwrvgnd_1
XPHY_EDGE_ROW_5_Right_5 VGND VGND VPWR VPWR sky130_fd_sc_hd__decap_3
XFILLER_0_13_28 VGND VGND VPWR VPWR sky130_fd_sc_hd__fill_1
XFILLER_0_24_49 VGND VGND VPWR VPWR sky130_fd_sc_hd__fill_2
X_396_ net72 _044_ _195_ VGND VGND VPWR VPWR _030_ sky130_fd_sc_hd__o21a_1
XFILLER_0_14_82 VGND VGND VPWR VPWR sky130_fd_sc_hd__fill_2
XTAP_TAPCELL_ROW_0_55 VGND VPWR sky130_fd_sc_hd__tapvpwrvgnd_1
X_250_ net45 net10 VGND VGND VPWR VPWR _075_ sky130_fd_sc_hd__xnor2_2
X_379_ net26 _181_ _183_ net76 _184_ VGND VGND VPWR VPWR _187_ sky130_fd_sc_hd__a221o_1
X_448_ clknet_2_0__leaf_clk _029_ VGND VGND VPWR VPWR net36 sky130_fd_sc_hd__dfxtp_1
XFILLER_0_24_138 VGND VGND VPWR VPWR sky130_fd_sc_hd__fill_2
X_302_ net51 _053_ _120_ _121_ _056_ VGND VGND VPWR VPWR _010_ sky130_fd_sc_hd__o221a_1
X_233_ net42 _054_ _056_ _060_ VGND VGND VPWR VPWR _002_ sky130_fd_sc_hd__o211a_1
XFILLER_0_15_138 VGND VGND VPWR VPWR sky130_fd_sc_hd__fill_1
Xhold18 net36 VGND VGND VPWR VPWR net84 sky130_fd_sc_hd__dlygate4sd3_1
XFILLER_0_21_108 VGND VGND VPWR VPWR sky130_fd_sc_hd__decap_4
XFILLER_0_22_82 VGND VGND VPWR VPWR sky130_fd_sc_hd__fill_2
X_216_ estado_act\[0\] estado_act\[1\] VGND VGND VPWR VPWR _045_ sky130_fd_sc_hd__nor2_2
XFILLER_0_7_113 VGND VGND VPWR VPWR sky130_fd_sc_hd__decap_4
XFILLER_0_7_135 VGND VGND VPWR VPWR sky130_fd_sc_hd__decap_8
XPHY_EDGE_ROW_11_Left_37 VGND VGND VPWR VPWR sky130_fd_sc_hd__decap_3
XFILLER_0_12_119 VGND VGND VPWR VPWR sky130_fd_sc_hd__fill_1
XFILLER_0_2_70 VGND VPWR VPWR VGND sky130_ef_sc_hd__decap_12
XFILLER_0_23_6 VGND VPWR VPWR VGND sky130_ef_sc_hd__decap_12
XTAP_TAPCELL_ROW_16_96 VGND VPWR sky130_fd_sc_hd__tapvpwrvgnd_1
XPHY_EDGE_ROW_20_Right_20 VGND VGND VPWR VPWR sky130_fd_sc_hd__decap_3
XPHY_EDGE_ROW_11_Right_11 VGND VGND VPWR VPWR sky130_fd_sc_hd__decap_3
XFILLER_0_0_141 VGND VGND VPWR VPWR sky130_fd_sc_hd__fill_2
XPHY_EDGE_ROW_14_Left_40 VGND VGND VPWR VPWR sky130_fd_sc_hd__decap_3
XFILLER_0_4_16 VGND VGND VPWR VPWR sky130_fd_sc_hd__decap_4
X_395_ net19 _178_ _182_ net38 _043_ VGND VGND VPWR VPWR _195_ sky130_fd_sc_hd__a221o_1
X_447_ clknet_2_2__leaf_clk _028_ VGND VGND VPWR VPWR net66 sky130_fd_sc_hd__dfxtp_1
XTAP_TAPCELL_ROW_0_56 VGND VPWR sky130_fd_sc_hd__tapvpwrvgnd_1
X_378_ net81 _000_ _186_ VGND VGND VPWR VPWR _021_ sky130_fd_sc_hd__o21a_1
XFILLER_0_25_93 VGND VGND VPWR VPWR sky130_fd_sc_hd__fill_1
XFILLER_0_18_147 VGND VGND VPWR VPWR sky130_fd_sc_hd__fill_1
XFILLER_0_18_125 VGND VGND VPWR VPWR sky130_fd_sc_hd__fill_1
XFILLER_0_21_18 VGND VGND VPWR VPWR sky130_fd_sc_hd__decap_4
X_301_ net52 _052_ _048_ VGND VGND VPWR VPWR _121_ sky130_fd_sc_hd__a21o_1
X_232_ _053_ _059_ VGND VGND VPWR VPWR _060_ sky130_fd_sc_hd__nand2_1
Xhold19 contador_act\[2\] VGND VGND VPWR VPWR net85 sky130_fd_sc_hd__dlygate4sd3_1
X_215_ _044_ VGND VGND VPWR VPWR _000_ sky130_fd_sc_hd__clkbuf_4
XFILLER_0_2_82 VGND VGND VPWR VPWR sky130_fd_sc_hd__fill_2
XFILLER_0_11_120 VGND VGND VPWR VPWR sky130_fd_sc_hd__decap_4
XFILLER_0_4_128 VGND VGND VPWR VPWR sky130_fd_sc_hd__decap_4
XFILLER_0_4_139 VGND VGND VPWR VPWR sky130_fd_sc_hd__fill_1
XFILLER_0_7_27 VGND VGND VPWR VPWR sky130_fd_sc_hd__decap_6
XFILLER_0_16_6 VGND VGND VPWR VPWR sky130_fd_sc_hd__decap_4
XFILLER_0_7_9 VGND VPWR VPWR VGND sky130_ef_sc_hd__decap_12
XFILLER_0_8_81 VGND VGND VPWR VPWR sky130_fd_sc_hd__decap_3
XFILLER_0_24_29 VGND VGND VPWR VPWR sky130_fd_sc_hd__decap_4
X_394_ net84 _044_ _194_ VGND VGND VPWR VPWR _029_ sky130_fd_sc_hd__o21a_1
XTAP_TAPCELL_ROW_13_87 VGND VPWR sky130_fd_sc_hd__tapvpwrvgnd_1
X_446_ clknet_2_2__leaf_clk _027_ VGND VGND VPWR VPWR net65 sky130_fd_sc_hd__dfxtp_1
X_377_ net25 _181_ _183_ net60 _184_ VGND VGND VPWR VPWR _186_ sky130_fd_sc_hd__a221o_1
XTAP_TAPCELL_ROW_9_77 VGND VPWR sky130_fd_sc_hd__tapvpwrvgnd_1
XFILLER_0_25_83 VGND VGND VPWR VPWR sky130_fd_sc_hd__fill_1
XFILLER_0_25_72 VGND VGND VPWR VPWR sky130_fd_sc_hd__fill_1
X_300_ _115_ _118_ _119_ _057_ VGND VGND VPWR VPWR _120_ sky130_fd_sc_hd__o211a_1
XFILLER_0_5_93 VGND VGND VPWR VPWR sky130_fd_sc_hd__fill_1
X_231_ net42 net1 _057_ _058_ VGND VGND VPWR VPWR _059_ sky130_fd_sc_hd__a31o_1
XFILLER_0_23_140 VGND VGND VPWR VPWR sky130_fd_sc_hd__decap_6
X_429_ clknet_2_3__leaf_clk _010_ VGND VGND VPWR VPWR net51 sky130_fd_sc_hd__dfxtp_1
XFILLER_0_11_85 VGND VGND VPWR VPWR sky130_fd_sc_hd__fill_1
Xinput1 mcand[0] VGND VGND VPWR VPWR net1 sky130_fd_sc_hd__clkbuf_2
X_214_ _043_ VGND VGND VPWR VPWR _044_ sky130_fd_sc_hd__inv_2
XFILLER_0_7_148 VGND VGND VPWR VPWR sky130_fd_sc_hd__decap_3
XFILLER_0_17_40 VGND VPWR VPWR VGND sky130_ef_sc_hd__decap_12
XFILLER_0_0_132 VGND VGND VPWR VPWR sky130_fd_sc_hd__decap_8
XPHY_EDGE_ROW_9_Right_9 VGND VGND VPWR VPWR sky130_fd_sc_hd__decap_3
X_393_ net18 _178_ _183_ net72 _184_ VGND VGND VPWR VPWR _194_ sky130_fd_sc_hd__a221o_1
XTAP_TAPCELL_ROW_13_88 VGND VPWR sky130_fd_sc_hd__tapvpwrvgnd_1
XFILLER_0_14_85 VGND VGND VPWR VPWR sky130_fd_sc_hd__decap_4
XTAP_TAPCELL_ROW_9_78 VGND VPWR sky130_fd_sc_hd__tapvpwrvgnd_1
X_445_ clknet_2_1__leaf_clk _026_ VGND VGND VPWR VPWR net64 sky130_fd_sc_hd__dfxtp_1
X_376_ net70 _000_ _185_ VGND VGND VPWR VPWR _020_ sky130_fd_sc_hd__o21a_1
X_230_ net43 _057_ VGND VGND VPWR VPWR _058_ sky130_fd_sc_hd__nor2_1
X_428_ clknet_2_3__leaf_clk _009_ VGND VGND VPWR VPWR net50 sky130_fd_sc_hd__dfxtp_2
XFILLER_0_1_19 VGND VGND VPWR VPWR sky130_fd_sc_hd__fill_1
X_359_ acu_act\[32\] _057_ _170_ _171_ _053_ VGND VGND VPWR VPWR _172_ sky130_fd_sc_hd__o221a_1