*SPEF "ieee 1481-1999"
*DESIGN "mult_seq_32x32"
*DATE "11:11:11 Fri 11 11, 1111"
*VENDOR "OpenRCX"
*PROGRAM "Parallel Extraction"
*VERSION "1.0"
*DESIGN_FLOW "NAME_SCOPE LOCAL" "PIN_CAP NONE"
*DIVIDER /
*DELIMITER :
*BUS_DELIMITER []
*T_UNIT 1 NS
*C_UNIT 1 PF
*R_UNIT 1 OHM
*L_UNIT 1 HENRY

*NAME_MAP
*3 clk
*4 done
*5 mcand[0]
*6 mcand[10]
*7 mcand[11]
*8 mcand[12]
*9 mcand[13]
*10 mcand[14]
*11 mcand[15]
*12 mcand[16]
*13 mcand[17]
*14 mcand[18]
*15 mcand[19]
*16 mcand[1]
*17 mcand[20]
*18 mcand[21]
*19 mcand[22]
*20 mcand[23]
*21 mcand[24]
*22 mcand[25]
*23 mcand[26]
*24 mcand[27]
*25 mcand[28]
*26 mcand[29]
*27 mcand[2]
*28 mcand[30]
*29 mcand[31]
*30 mcand[3]
*31 mcand[4]
*32 mcand[5]
*33 mcand[6]
*34 mcand[7]
*35 mcand[8]
*36 mcand[9]
*37 mplier[0]
*38 mplier[10]
*39 mplier[11]
*40 mplier[12]
*41 mplier[13]
*42 mplier[14]
*43 mplier[15]
*44 mplier[16]
*45 mplier[17]
*46 mplier[18]
*47 mplier[19]
*48 mplier[1]
*49 mplier[20]
*50 mplier[21]
*51 mplier[22]
*52 mplier[23]
*53 mplier[24]
*54 mplier[25]
*55 mplier[26]
*56 mplier[27]
*57 mplier[28]
*58 mplier[29]
*59 mplier[2]
*60 mplier[30]
*61 mplier[31]
*62 mplier[3]
*63 mplier[4]
*64 mplier[5]
*65 mplier[6]
*66 mplier[7]
*67 mplier[8]
*68 mplier[9]
*69 product[0]
*70 product[10]
*71 product[11]
*72 product[12]
*73 product[13]
*74 product[14]
*75 product[15]
*76 product[16]
*77 product[17]
*78 product[18]
*79 product[19]
*80 product[1]
*81 product[20]
*82 product[21]
*83 product[22]
*84 product[23]
*85 product[24]
*86 product[25]
*87 product[26]
*88 product[27]
*89 product[28]
*90 product[29]
*91 product[2]
*92 product[30]
*93 product[31]
*94 product[32]
*95 product[33]
*96 product[34]
*97 product[35]
*98 product[36]
*99 product[37]
*100 product[38]
*101 product[39]
*102 product[3]
*103 product[40]
*104 product[41]
*105 product[42]
*106 product[43]
*107 product[44]
*108 product[45]
*109 product[46]
*110 product[47]
*111 product[48]
*112 product[49]
*113 product[4]
*114 product[50]
*115 product[51]
*116 product[52]
*117 product[53]
*118 product[54]
*119 product[55]
*120 product[56]
*121 product[57]
*122 product[58]
*123 product[59]
*124 product[5]
*125 product[60]
*126 product[61]
*127 product[62]
*128 product[63]
*129 product[6]
*130 product[7]
*131 product[8]
*132 product[9]
*133 st
*134 _000_
*135 _001_
*136 _002_
*137 _003_
*138 _004_
*139 _005_
*140 _006_
*141 _007_
*142 _008_
*143 _009_
*144 _010_
*145 _011_
*146 _012_
*147 _013_
*148 _014_
*149 _015_
*150 _016_
*151 _017_
*152 _018_
*153 _019_
*154 _020_
*155 _021_
*156 _022_
*157 _023_
*158 _024_
*159 _025_
*160 _026_
*161 _027_
*162 _028_
*163 _029_
*164 _030_
*165 _031_
*166 _032_
*167 _033_
*168 _034_
*169 _035_
*170 _036_
*171 _037_
*172 _038_
*173 _039_
*174 _040_
*175 _041_
*176 _042_
*177 _043_
*178 _044_
*179 _045_
*180 _046_
*181 _047_
*182 _048_
*183 _049_
*184 _050_
*185 _051_
*186 _052_
*187 _053_
*188 _054_
*189 _055_
*190 _056_
*191 _057_
*192 _058_
*193 _059_
*194 _060_
*195 _061_
*196 _062_
*197 _063_
*198 _064_
*199 _065_
*200 _066_
*201 _067_
*202 _068_
*203 _069_
*204 _070_
*205 _071_
*206 _072_
*207 _073_
*208 _074_
*209 _075_
*210 _076_
*211 _077_
*212 _078_
*213 _079_
*214 _080_
*215 _081_
*216 _082_
*217 _083_
*218 _084_
*219 _085_
*220 _086_
*221 _087_
*222 _088_
*223 _089_
*224 _090_
*225 _091_
*226 _092_
*227 _093_
*228 _094_
*229 _095_
*230 _096_
*231 _097_
*232 _098_
*233 _099_
*234 _100_
*235 _101_
*236 _102_
*237 _103_
*238 _104_
*239 _105_
*240 _106_
*241 _107_
*242 _108_
*243 _109_
*244 _110_
*245 _111_
*246 _112_
*247 _113_
*248 _114_
*249 _115_
*250 _116_
*251 _117_
*252 _118_
*253 _119_
*254 _120_
*255 _121_
*256 _122_
*257 _123_
*258 _124_
*259 _125_
*260 _126_
*261 _127_
*262 _128_
*263 _129_
*264 _130_
*265 _131_
*266 _132_
*267 _133_
*268 _134_
*269 _135_
*270 _136_
*271 _137_
*272 _138_
*273 _139_
*274 _140_
*275 _141_
*276 _142_
*277 _143_
*278 _144_
*279 _145_
*280 _146_
*281 _147_
*282 _148_
*283 _149_
*284 _150_
*285 _151_
*286 _152_
*287 _153_
*288 _154_
*289 _155_
*290 _156_
*291 _157_
*292 _158_
*293 _159_
*294 _160_
*295 _161_
*296 _162_
*297 _163_
*298 _164_
*299 _165_
*300 _166_
*301 _167_
*302 _168_
*303 _169_
*304 _170_
*305 _171_
*306 _172_
*307 _173_
*308 _174_
*309 _175_
*310 _176_
*311 _177_
*312 _178_
*313 _179_
*314 _180_
*315 _181_
*316 _182_
*317 _183_
*318 _184_
*319 _185_
*320 _186_
*321 _187_
*322 _188_
*323 _189_
*324 _190_
*325 _191_
*326 _192_
*327 _193_
*328 _194_
*329 _195_
*330 _196_
*331 _197_
*332 _198_
*333 _199_
*334 _200_
*335 _201_
*336 _202_
*337 _203_
*338 _204_
*339 _205_
*340 _206_
*341 _207_
*342 _208_
*343 _209_
*344 _210_
*345 _211_
*346 _212_
*347 _213_
*348 _214_
*349 _215_
*350 _216_
*351 _217_
*352 _218_
*353 _219_
*354 _220_
*355 _221_
*356 _222_
*357 _223_
*358 _224_
*359 _225_
*360 _226_
*361 _227_
*362 _228_
*363 _229_
*364 _230_
*365 _231_
*366 _232_
*367 _233_
*368 _234_
*369 _235_
*370 _236_
*371 _237_
*372 _238_
*373 _239_
*374 _240_
*375 _241_
*376 _242_
*377 _243_
*378 _244_
*379 _245_
*380 _246_
*381 _247_
*382 _248_
*383 _249_
*384 _250_
*385 _251_
*386 _252_
*387 _253_
*388 _254_
*389 _255_
*390 _256_
*391 _257_
*392 _258_
*393 _259_
*394 _260_
*395 _261_
*396 _262_
*397 _263_
*398 _264_
*399 _265_
*400 _266_
*401 _267_
*402 _268_
*403 _269_
*404 _270_
*405 _271_
*406 _272_
*407 _273_
*408 _274_
*409 _275_
*410 _276_
*411 _277_
*412 _278_
*413 _279_
*414 _280_
*415 _281_
*416 _282_
*417 _283_
*418 _284_
*419 _285_
*420 _286_
*421 _287_
*422 _288_
*423 _289_
*424 _290_
*425 _291_
*426 _292_
*427 _293_
*428 _294_
*429 _295_
*430 _296_
*431 _297_
*432 _298_
*433 _299_
*434 _300_
*435 _301_
*436 _302_
*437 _303_
*438 _304_
*439 _305_
*440 _306_
*441 _307_
*442 _308_
*443 _309_
*444 _310_
*445 _311_
*446 _312_
*447 _313_
*448 _314_
*449 _315_
*450 _316_
*451 _317_
*452 _318_
*453 _319_
*454 _320_
*455 _321_
*456 _322_
*457 _323_
*458 _324_
*459 _325_
*460 _326_
*461 _327_
*462 _328_
*463 _329_
*464 _330_
*465 _331_
*466 _332_
*467 _333_
*468 _334_
*469 _335_
*470 _336_
*471 _337_
*472 _338_
*473 _339_
*474 _340_
*475 _341_
*476 _342_
*477 _343_
*478 _344_
*479 _345_
*480 _346_
*481 _347_
*482 _348_
*483 _349_
*484 _350_
*485 _351_
*486 _352_
*487 _353_
*488 _354_
*489 _355_
*490 _356_
*491 _357_
*492 _358_
*493 _359_
*494 _360_
*495 _361_
*496 _362_
*497 _363_
*498 _364_
*499 _365_
*500 _366_
*501 _367_
*502 _368_
*503 _369_
*504 _370_
*505 _371_
*506 _372_
*507 _373_
*508 _374_
*509 _375_
*510 _376_
*511 _377_
*512 _378_
*513 _379_
*514 _380_
*515 _381_
*516 _382_
*517 _383_
*518 _384_
*519 _385_
*520 _386_
*521 _387_
*522 _388_
*523 _389_
*524 _390_
*525 _391_
*526 _392_
*527 _393_
*528 _394_
*529 _395_
*530 _396_
*531 _397_
*532 _398_
*533 _399_
*534 _400_
*535 _401_
*536 _402_
*537 _403_
*538 _404_
*539 _405_
*540 _406_
*541 _407_
*542 _408_
*543 _409_
*544 _410_
*545 _411_
*546 _412_
*547 _413_
*548 _414_
*549 _415_
*550 _416_
*551 _417_
*552 _418_
*553 _419_
*554 _420_
*555 _421_
*556 _422_
*557 _423_
*558 _424_
*559 _425_
*560 _426_
*561 _427_
*562 _428_
*563 _429_
*564 _430_
*565 _431_
*566 _432_
*567 _433_
*568 _434_
*569 _435_
*570 _436_
*571 _437_
*572 _438_
*573 _439_
*574 _440_
*575 _441_
*576 _442_
*577 _443_
*578 acu_act\[64\]
*579 clknet_0_clk
*580 clknet_3_0__leaf_clk
*581 clknet_3_1__leaf_clk
*582 clknet_3_2__leaf_clk
*583 clknet_3_3__leaf_clk
*584 clknet_3_4__leaf_clk
*585 clknet_3_5__leaf_clk
*586 clknet_3_6__leaf_clk
*587 clknet_3_7__leaf_clk
*588 contador_act\[0\]
*589 contador_act\[1\]
*590 contador_act\[2\]
*591 contador_act\[3\]
*592 contador_act\[4\]
*593 contador_act\[5\]
*594 estado_act\[0\]
*595 estado_act\[1\]
*596 net1
*597 net10
*598 net100
*599 net101
*600 net102
*601 net103
*602 net104
*603 net105
*604 net106
*605 net107
*606 net108
*607 net109
*608 net11
*609 net110
*610 net111
*611 net112
*612 net113
*613 net114
*614 net115
*615 net116
*616 net117
*617 net118
*618 net119
*619 net12
*620 net120
*621 net121
*622 net122
*623 net123
*624 net124
*625 net125
*626 net126
*627 net127
*628 net128
*629 net129
*630 net13
*631 net130
*632 net131
*633 net132
*634 net133
*635 net134
*636 net135
*637 net136
*638 net137
*639 net138
*640 net139
*641 net14
*642 net140
*643 net141
*644 net142
*645 net143
*646 net144
*647 net145
*648 net146
*649 net147
*650 net148
*651 net149
*652 net15
*653 net150
*654 net151
*655 net152
*656 net153
*657 net154
*658 net155
*659 net156
*660 net157
*661 net158
*662 net159
*663 net16
*664 net160
*665 net161
*666 net162
*667 net17
*668 net18
*669 net19
*670 net2
*671 net20
*672 net21
*673 net22
*674 net23
*675 net24
*676 net25
*677 net26
*678 net27
*679 net28
*680 net29
*681 net3
*682 net30
*683 net31
*684 net32
*685 net33
*686 net34
*687 net35
*688 net36
*689 net37
*690 net38
*691 net39
*692 net4
*693 net40
*694 net41
*695 net42
*696 net43
*697 net44
*698 net45
*699 net46
*700 net47
*701 net48
*702 net49
*703 net5
*704 net50
*705 net51
*706 net52
*707 net53
*708 net54
*709 net55
*710 net56
*711 net57
*712 net58
*713 net59
*714 net6
*715 net60
*716 net61
*717 net62
*718 net63
*719 net64
*720 net65
*721 net66
*722 net67
*723 net68
*724 net69
*725 net7
*726 net70
*727 net71
*728 net72
*729 net73
*730 net74
*731 net75
*732 net76
*733 net77
*734 net78
*735 net79
*736 net8
*737 net80
*738 net81
*739 net82
*740 net83
*741 net84
*742 net85
*743 net86
*744 net87
*745 net88
*746 net89
*747 net9
*748 net90
*749 net91
*750 net92
*751 net93
*752 net94
*753 net95
*754 net96
*755 net97
*756 net98
*757 net99
*758 FILLER_0_0_102
*759 FILLER_0_0_126
*760 FILLER_0_0_133
*761 FILLER_0_0_139
*762 FILLER_0_0_154
*763 FILLER_0_0_163
*764 FILLER_0_0_167
*765 FILLER_0_0_184
*766 FILLER_0_0_189
*767 FILLER_0_0_195
*768 FILLER_0_0_215
*769 FILLER_0_0_27
*770 FILLER_0_0_35
*771 FILLER_0_0_42
*772 FILLER_0_0_48
*773 FILLER_0_0_63
*774 FILLER_0_0_77
*775 FILLER_0_0_85
*776 FILLER_0_10_100
*777 FILLER_0_10_136
*778 FILLER_0_10_141
*779 FILLER_0_10_165
*780 FILLER_0_10_193
*781 FILLER_0_10_197
*782 FILLER_0_10_25
*783 FILLER_0_10_45
*784 FILLER_0_10_53
*785 FILLER_0_10_61
*786 FILLER_0_10_83
*787 FILLER_0_11_104
*788 FILLER_0_11_117
*789 FILLER_0_11_134
*790 FILLER_0_11_156
*791 FILLER_0_11_169
*792 FILLER_0_11_196
*793 FILLER_0_11_208
*794 FILLER_0_11_27
*795 FILLER_0_11_42
*796 FILLER_0_11_54
*797 FILLER_0_11_57
*798 FILLER_0_11_75
*799 FILLER_0_11_79
*800 FILLER_0_11_9
*801 FILLER_0_12_104
*802 FILLER_0_12_116
*803 FILLER_0_12_120
*804 FILLER_0_12_126
*805 FILLER_0_12_133
*806 FILLER_0_12_139
*807 FILLER_0_12_141
*808 FILLER_0_12_178
*809 FILLER_0_12_208
*810 FILLER_0_12_26
*811 FILLER_0_12_36
*812 FILLER_0_12_46
*813 FILLER_0_12_55
*814 FILLER_0_12_72
*815 FILLER_0_12_82
*816 FILLER_0_12_85
*817 FILLER_0_13_110
*818 FILLER_0_13_113
*819 FILLER_0_13_125
*820 FILLER_0_13_135
*821 FILLER_0_13_147
*822 FILLER_0_13_155
*823 FILLER_0_13_167
*824 FILLER_0_13_173
*825 FILLER_0_13_218
*826 FILLER_0_13_28
*827 FILLER_0_13_3
*828 FILLER_0_13_32
*829 FILLER_0_13_49
*830 FILLER_0_13_68
*831 FILLER_0_13_7
*832 FILLER_0_13_80
*833 FILLER_0_13_98
*834 FILLER_0_14_103
*835 FILLER_0_14_115
*836 FILLER_0_14_123
*837 FILLER_0_14_141
*838 FILLER_0_14_15
*839 FILLER_0_14_153
*840 FILLER_0_14_186
*841 FILLER_0_14_197
*842 FILLER_0_14_23
*843 FILLER_0_14_27
*844 FILLER_0_14_39
*845 FILLER_0_14_51
*846 FILLER_0_14_73
*847 FILLER_0_14_81
*848 FILLER_0_14_9
*849 FILLER_0_14_91
*850 FILLER_0_15_107
*851 FILLER_0_15_111
*852 FILLER_0_15_133
*853 FILLER_0_15_145
*854 FILLER_0_15_154
*855 FILLER_0_15_158
*856 FILLER_0_15_165
*857 FILLER_0_15_169
*858 FILLER_0_15_181
*859 FILLER_0_15_192
*860 FILLER_0_15_206
*861 FILLER_0_15_21
*862 FILLER_0_15_33
*863 FILLER_0_15_37
*864 FILLER_0_15_41
*865 FILLER_0_15_53
*866 FILLER_0_15_57
*867 FILLER_0_15_69
*868 FILLER_0_15_87
*869 FILLER_0_16_128
*870 FILLER_0_16_139
*871 FILLER_0_16_157
*872 FILLER_0_16_167
*873 FILLER_0_16_171
*874 FILLER_0_16_183
*875 FILLER_0_16_191
*876 FILLER_0_16_213
*877 FILLER_0_16_22
*878 FILLER_0_16_29
*879 FILLER_0_16_53
*880 FILLER_0_16_76
*881 FILLER_0_16_85
*882 FILLER_0_17_129
*883 FILLER_0_17_141
*884 FILLER_0_17_149
*885 FILLER_0_17_186
*886 FILLER_0_17_198
*887 FILLER_0_17_27
*888 FILLER_0_17_35
*889 FILLER_0_17_40
*890 FILLER_0_17_48
*891 FILLER_0_17_57
*892 FILLER_0_17_6
*893 FILLER_0_17_70
*894 FILLER_0_17_82
*895 FILLER_0_17_94
*896 FILLER_0_18_103
*897 FILLER_0_18_135
*898 FILLER_0_18_139
*899 FILLER_0_18_141
*900 FILLER_0_18_153
*901 FILLER_0_18_165
*902 FILLER_0_18_173
*903 FILLER_0_18_191
*904 FILLER_0_18_195
*905 FILLER_0_18_197
*906 FILLER_0_18_21
*907 FILLER_0_18_29
*908 FILLER_0_18_3
*909 FILLER_0_18_63
*910 FILLER_0_18_71
*911 FILLER_0_18_81
*912 FILLER_0_18_85
*913 FILLER_0_18_97
*914 FILLER_0_19_108
*915 FILLER_0_19_128
*916 FILLER_0_19_136
*917 FILLER_0_19_148
*918 FILLER_0_19_156
*919 FILLER_0_19_162
*920 FILLER_0_19_169
*921 FILLER_0_19_18
*922 FILLER_0_19_181
*923 FILLER_0_19_196
*924 FILLER_0_19_200
*925 FILLER_0_19_30
*926 FILLER_0_19_54
*927 FILLER_0_19_7
*928 FILLER_0_19_71
*929 FILLER_0_1_113
*930 FILLER_0_1_121
*931 FILLER_0_1_140
*932 FILLER_0_1_17
*933 FILLER_0_1_176
*934 FILLER_0_1_188
*935 FILLER_0_1_196
*936 FILLER_0_1_23
*937 FILLER_0_1_27
*938 FILLER_0_1_3
*939 FILLER_0_1_39
*940 FILLER_0_1_51
*941 FILLER_0_1_55
*942 FILLER_0_1_57
*943 FILLER_0_20_101
*944 FILLER_0_20_105
*945 FILLER_0_20_137
*946 FILLER_0_20_141
*947 FILLER_0_20_15
*948 FILLER_0_20_158
*949 FILLER_0_20_210
*950 FILLER_0_20_214
*951 FILLER_0_20_27
*952 FILLER_0_20_3
*953 FILLER_0_20_36
*954 FILLER_0_20_42
*955 FILLER_0_20_46
*956 FILLER_0_20_73
*957 FILLER_0_20_78
*958 FILLER_0_20_89
*959 FILLER_0_21_106
*960 FILLER_0_21_125
*961 FILLER_0_21_133
*962 FILLER_0_21_156
*963 FILLER_0_21_167
*964 FILLER_0_21_169
*965 FILLER_0_21_18
*966 FILLER_0_21_204
*967 FILLER_0_21_210
*968 FILLER_0_21_26
*969 FILLER_0_21_38
*970 FILLER_0_21_50
*971 FILLER_0_21_6
*972 FILLER_0_21_79
*973 FILLER_0_21_94
*974 FILLER_0_22_105
*975 FILLER_0_22_113
*976 FILLER_0_22_117
*977 FILLER_0_22_121
*978 FILLER_0_22_136
*979 FILLER_0_22_161
*980 FILLER_0_22_173
*981 FILLER_0_22_180
*982 FILLER_0_22_184
*983 FILLER_0_22_189
*984 FILLER_0_22_197
*985 FILLER_0_22_209
*986 FILLER_0_22_215
*987 FILLER_0_22_38
*988 FILLER_0_22_6
*989 FILLER_0_22_62
*990 FILLER_0_22_66
*991 FILLER_0_22_71
*992 FILLER_0_22_75
*993 FILLER_0_22_85
*994 FILLER_0_23_105
*995 FILLER_0_23_111
*996 FILLER_0_23_113
*997 FILLER_0_23_121
*998 FILLER_0_23_15
*999 FILLER_0_23_152
*1000 FILLER_0_23_159
*1001 FILLER_0_23_167
*1002 FILLER_0_23_169
*1003 FILLER_0_23_180
*1004 FILLER_0_23_189
*1005 FILLER_0_23_201
*1006 FILLER_0_23_21
*1007 FILLER_0_23_27
*1008 FILLER_0_23_3
*1009 FILLER_0_23_53
*1010 FILLER_0_23_63
*1011 FILLER_0_23_75
*1012 FILLER_0_23_93
*1013 FILLER_0_24_127
*1014 FILLER_0_24_135
*1015 FILLER_0_24_149
*1016 FILLER_0_24_18
*1017 FILLER_0_24_180
*1018 FILLER_0_24_214
*1019 FILLER_0_24_218
*1020 FILLER_0_24_26
*1021 FILLER_0_24_29
*1022 FILLER_0_24_56
*1023 FILLER_0_24_6
*1024 FILLER_0_24_67
*1025 FILLER_0_24_80
*1026 FILLER_0_24_85
*1027 FILLER_0_24_97
*1028 FILLER_0_25_100
*1029 FILLER_0_25_12
*1030 FILLER_0_25_129
*1031 FILLER_0_25_147
*1032 FILLER_0_25_158
*1033 FILLER_0_25_167
*1034 FILLER_0_25_169
*1035 FILLER_0_25_175
*1036 FILLER_0_25_183
*1037 FILLER_0_25_195
*1038 FILLER_0_25_211
*1039 FILLER_0_25_215
*1040 FILLER_0_25_31
*1041 FILLER_0_25_52
*1042 FILLER_0_25_57
*1043 FILLER_0_25_75
*1044 FILLER_0_25_91
*1045 FILLER_0_26_110
*1046 FILLER_0_26_122
*1047 FILLER_0_26_126
*1048 FILLER_0_26_161
*1049 FILLER_0_26_165
*1050 FILLER_0_26_182
*1051 FILLER_0_26_197
*1052 FILLER_0_26_20
*1053 FILLER_0_26_26
*1054 FILLER_0_26_29
*1055 FILLER_0_26_37
*1056 FILLER_0_26_72
*1057 FILLER_0_26_79
*1058 FILLER_0_26_83
*1059 FILLER_0_26_85
*1060 FILLER_0_27_107
*1061 FILLER_0_27_111
*1062 FILLER_0_27_113
*1063 FILLER_0_27_125
*1064 FILLER_0_27_129
*1065 FILLER_0_27_135
*1066 FILLER_0_27_147
*1067 FILLER_0_27_163
*1068 FILLER_0_27_167
*1069 FILLER_0_27_17
*1070 FILLER_0_27_175
*1071 FILLER_0_27_187
*1072 FILLER_0_27_199
*1073 FILLER_0_27_211
*1074 FILLER_0_27_26
*1075 FILLER_0_27_32
*1076 FILLER_0_27_36
*1077 FILLER_0_27_48
*1078 FILLER_0_27_54
*1079 FILLER_0_27_65
*1080 FILLER_0_27_74
*1081 FILLER_0_27_83
*1082 FILLER_0_27_9
*1083 FILLER_0_27_95
*1084 FILLER_0_28_103
*1085 FILLER_0_28_118
*1086 FILLER_0_28_125
*1087 FILLER_0_28_139
*1088 FILLER_0_28_141
*1089 FILLER_0_28_15
*1090 FILLER_0_28_153
*1091 FILLER_0_28_161
*1092 FILLER_0_28_171
*1093 FILLER_0_28_183
*1094 FILLER_0_28_187
*1095 FILLER_0_28_195
*1096 FILLER_0_28_200
*1097 FILLER_0_28_204
*1098 FILLER_0_28_216
*1099 FILLER_0_28_25
*1100 FILLER_0_28_29
*1101 FILLER_0_28_3
*1102 FILLER_0_28_45
*1103 FILLER_0_28_57
*1104 FILLER_0_28_65
*1105 FILLER_0_28_83
*1106 FILLER_0_28_85
*1107 FILLER_0_28_97
*1108 FILLER_0_29_108
*1109 FILLER_0_29_12
*1110 FILLER_0_29_145
*1111 FILLER_0_29_157
*1112 FILLER_0_29_167
*1113 FILLER_0_29_178
*1114 FILLER_0_29_200
*1115 FILLER_0_29_206
*1116 FILLER_0_29_214
*1117 FILLER_0_29_22
*1118 FILLER_0_29_34
*1119 FILLER_0_29_46
*1120 FILLER_0_29_52
*1121 FILLER_0_29_6
*1122 FILLER_0_29_86
*1123 FILLER_0_2_11
*1124 FILLER_0_2_136
*1125 FILLER_0_2_150
*1126 FILLER_0_2_181
*1127 FILLER_0_2_193
*1128 FILLER_0_2_197
*1129 FILLER_0_2_201
*1130 FILLER_0_2_212
*1131 FILLER_0_2_23
*1132 FILLER_0_2_27
*1133 FILLER_0_2_29
*1134 FILLER_0_2_3
*1135 FILLER_0_2_41
*1136 FILLER_0_2_70
*1137 FILLER_0_2_81
*1138 FILLER_0_30_126
*1139 FILLER_0_30_13
*1140 FILLER_0_30_141
*1141 FILLER_0_30_147
*1142 FILLER_0_30_151
*1143 FILLER_0_30_169
*1144 FILLER_0_30_195
*1145 FILLER_0_30_206
*1146 FILLER_0_30_212
*1147 FILLER_0_30_27
*1148 FILLER_0_30_29
*1149 FILLER_0_30_37
*1150 FILLER_0_30_49
*1151 FILLER_0_30_81
*1152 FILLER_0_30_93
*1153 FILLER_0_31_103
*1154 FILLER_0_31_111
*1155 FILLER_0_31_113
*1156 FILLER_0_31_119
*1157 FILLER_0_31_12
*1158 FILLER_0_31_131
*1159 FILLER_0_31_143
*1160 FILLER_0_31_165
*1161 FILLER_0_31_174
*1162 FILLER_0_31_18
*1163 FILLER_0_31_202
*1164 FILLER_0_31_28
*1165 FILLER_0_31_40
*1166 FILLER_0_31_55
*1167 FILLER_0_31_57
*1168 FILLER_0_31_69
*1169 FILLER_0_31_79
*1170 FILLER_0_31_91
*1171 FILLER_0_32_116
*1172 FILLER_0_32_128
*1173 FILLER_0_32_133
*1174 FILLER_0_32_139
*1175 FILLER_0_32_141
*1176 FILLER_0_32_15
*1177 FILLER_0_32_153
*1178 FILLER_0_32_157
*1179 FILLER_0_32_169
*1180 FILLER_0_32_181
*1181 FILLER_0_32_193
*1182 FILLER_0_32_197
*1183 FILLER_0_32_209
*1184 FILLER_0_32_3
*1185 FILLER_0_32_35
*1186 FILLER_0_32_41
*1187 FILLER_0_32_50
*1188 FILLER_0_32_62
*1189 FILLER_0_32_74
*1190 FILLER_0_32_82
*1191 FILLER_0_32_85
*1192 FILLER_0_32_89
*1193 FILLER_0_32_97
*1194 FILLER_0_33_103
*1195 FILLER_0_33_111
*1196 FILLER_0_33_121
*1197 FILLER_0_33_140
*1198 FILLER_0_33_148
*1199 FILLER_0_33_157
*1200 FILLER_0_33_165
*1201 FILLER_0_33_169
*1202 FILLER_0_33_18
*1203 FILLER_0_33_181
*1204 FILLER_0_33_193
*1205 FILLER_0_33_205
*1206 FILLER_0_33_22
*1207 FILLER_0_33_26
*1208 FILLER_0_33_38
*1209 FILLER_0_33_52
*1210 FILLER_0_33_6
*1211 FILLER_0_33_87
*1212 FILLER_0_33_91
*1213 FILLER_0_34_111
*1214 FILLER_0_34_141
*1215 FILLER_0_34_145
*1216 FILLER_0_34_162
*1217 FILLER_0_34_174
*1218 FILLER_0_34_18
*1219 FILLER_0_34_186
*1220 FILLER_0_34_194
*1221 FILLER_0_34_197
*1222 FILLER_0_34_205
*1223 FILLER_0_34_26
*1224 FILLER_0_34_29
*1225 FILLER_0_34_60
*1226 FILLER_0_34_71
*1227 FILLER_0_34_76
*1228 FILLER_0_34_88
*1229 FILLER_0_35_113
*1230 FILLER_0_35_122
*1231 FILLER_0_35_136
*1232 FILLER_0_35_144
*1233 FILLER_0_35_159
*1234 FILLER_0_35_167
*1235 FILLER_0_35_169
*1236 FILLER_0_35_181
*1237 FILLER_0_35_193
*1238 FILLER_0_35_20
*1239 FILLER_0_35_201
*1240 FILLER_0_35_29
*1241 FILLER_0_35_3
*1242 FILLER_0_35_37
*1243 FILLER_0_35_55
*1244 FILLER_0_35_57
*1245 FILLER_0_35_80
*1246 FILLER_0_35_92
*1247 FILLER_0_36_107
*1248 FILLER_0_36_111
*1249 FILLER_0_36_113
*1250 FILLER_0_36_121
*1251 FILLER_0_36_134
*1252 FILLER_0_36_141
*1253 FILLER_0_36_146
*1254 FILLER_0_36_156
*1255 FILLER_0_36_160
*1256 FILLER_0_36_167
*1257 FILLER_0_36_169
*1258 FILLER_0_36_177
*1259 FILLER_0_36_181
*1260 FILLER_0_36_191
*1261 FILLER_0_36_195
*1262 FILLER_0_36_197
*1263 FILLER_0_36_211
*1264 FILLER_0_36_22
*1265 FILLER_0_36_27
*1266 FILLER_0_36_29
*1267 FILLER_0_36_3
*1268 FILLER_0_36_37
*1269 FILLER_0_36_41
*1270 FILLER_0_36_54
*1271 FILLER_0_36_66
*1272 FILLER_0_36_72
*1273 FILLER_0_36_79
*1274 FILLER_0_36_83
*1275 FILLER_0_36_85
*1276 FILLER_0_36_90
*1277 FILLER_0_36_97
*1278 FILLER_0_3_103
*1279 FILLER_0_3_107
*1280 FILLER_0_3_12
*1281 FILLER_0_3_122
*1282 FILLER_0_3_144
*1283 FILLER_0_3_152
*1284 FILLER_0_3_167
*1285 FILLER_0_3_172
*1286 FILLER_0_3_184
*1287 FILLER_0_3_196
*1288 FILLER_0_3_208
*1289 FILLER_0_3_24
*1290 FILLER_0_3_36
*1291 FILLER_0_3_48
*1292 FILLER_0_3_73
*1293 FILLER_0_3_85
*1294 FILLER_0_3_97
*1295 FILLER_0_4_108
*1296 FILLER_0_4_112
*1297 FILLER_0_4_120
*1298 FILLER_0_4_137
*1299 FILLER_0_4_156
*1300 FILLER_0_4_168
*1301 FILLER_0_4_189
*1302 FILLER_0_4_195
*1303 FILLER_0_4_205
*1304 FILLER_0_4_21
*1305 FILLER_0_4_217
*1306 FILLER_0_4_27
*1307 FILLER_0_4_29
*1308 FILLER_0_4_53
*1309 FILLER_0_4_64
*1310 FILLER_0_4_83
*1311 FILLER_0_4_85
*1312 FILLER_0_4_9
*1313 FILLER_0_4_93
*1314 FILLER_0_5_120
*1315 FILLER_0_5_167
*1316 FILLER_0_5_201
*1317 FILLER_0_5_21
*1318 FILLER_0_5_33
*1319 FILLER_0_5_39
*1320 FILLER_0_5_67
*1321 FILLER_0_5_9
*1322 FILLER_0_5_94
*1323 FILLER_0_6_101
*1324 FILLER_0_6_118
*1325 FILLER_0_6_12
*1326 FILLER_0_6_138
*1327 FILLER_0_6_170
*1328 FILLER_0_6_178
*1329 FILLER_0_6_197
*1330 FILLER_0_6_20
*1331 FILLER_0_6_217
*1332 FILLER_0_6_24
*1333 FILLER_0_6_45
*1334 FILLER_0_6_67
*1335 FILLER_0_6_71
*1336 FILLER_0_6_82
*1337 FILLER_0_7_110
*1338 FILLER_0_7_113
*1339 FILLER_0_7_125
*1340 FILLER_0_7_133
*1341 FILLER_0_7_137
*1342 FILLER_0_7_141
*1343 FILLER_0_7_153
*1344 FILLER_0_7_166
*1345 FILLER_0_7_176
*1346 FILLER_0_7_188
*1347 FILLER_0_7_214
*1348 FILLER_0_7_29
*1349 FILLER_0_7_3
*1350 FILLER_0_7_52
*1351 FILLER_0_7_57
*1352 FILLER_0_7_71
*1353 FILLER_0_7_79
*1354 FILLER_0_7_86
*1355 FILLER_0_7_98
*1356 FILLER_0_8_105
*1357 FILLER_0_8_117
*1358 FILLER_0_8_126
*1359 FILLER_0_8_138
*1360 FILLER_0_8_141
*1361 FILLER_0_8_149
*1362 FILLER_0_8_17
*1363 FILLER_0_8_182
*1364 FILLER_0_8_194
*1365 FILLER_0_8_197
*1366 FILLER_0_8_38
*1367 FILLER_0_8_63
*1368 FILLER_0_8_75
*1369 FILLER_0_8_83
*1370 FILLER_0_8_85
*1371 FILLER_0_8_9
*1372 FILLER_0_8_93
*1373 FILLER_0_9_110
*1374 FILLER_0_9_113
*1375 FILLER_0_9_130
*1376 FILLER_0_9_14
*1377 FILLER_0_9_160
*1378 FILLER_0_9_165
*1379 FILLER_0_9_169
*1380 FILLER_0_9_18
*1381 FILLER_0_9_187
*1382 FILLER_0_9_197
*1383 FILLER_0_9_201
*1384 FILLER_0_9_214
*1385 FILLER_0_9_3
*1386 FILLER_0_9_46
*1387 FILLER_0_9_57
*1388 FILLER_0_9_69
*1389 FILLER_0_9_77
*1390 FILLER_0_9_89
*1391 FILLER_0_9_97
*1392 PHY_EDGE_ROW_0_Left_37
*1393 PHY_EDGE_ROW_0_Right_0
*1394 PHY_EDGE_ROW_10_Left_47
*1395 PHY_EDGE_ROW_10_Right_10
*1396 PHY_EDGE_ROW_11_Left_48
*1397 PHY_EDGE_ROW_11_Right_11
*1398 PHY_EDGE_ROW_12_Left_49
*1399 PHY_EDGE_ROW_12_Right_12
*1400 PHY_EDGE_ROW_13_Left_50
*1401 PHY_EDGE_ROW_13_Right_13
*1402 PHY_EDGE_ROW_14_Left_51
*1403 PHY_EDGE_ROW_14_Right_14
*1404 PHY_EDGE_ROW_15_Left_52
*1405 PHY_EDGE_ROW_15_Right_15
*1406 PHY_EDGE_ROW_16_Left_53
*1407 PHY_EDGE_ROW_16_Right_16
*1408 PHY_EDGE_ROW_17_Left_54
*1409 PHY_EDGE_ROW_17_Right_17
*1410 PHY_EDGE_ROW_18_Left_55
*1411 PHY_EDGE_ROW_18_Right_18
*1412 PHY_EDGE_ROW_19_Left_56
*1413 PHY_EDGE_ROW_19_Right_19
*1414 PHY_EDGE_ROW_1_Left_38
*1415 PHY_EDGE_ROW_1_Right_1
*1416 PHY_EDGE_ROW_20_Left_57
*1417 PHY_EDGE_ROW_20_Right_20
*1418 PHY_EDGE_ROW_21_Left_58
*1419 PHY_EDGE_ROW_21_Right_21
*1420 PHY_EDGE_ROW_22_Left_59
*1421 PHY_EDGE_ROW_22_Right_22
*1422 PHY_EDGE_ROW_23_Left_60
*1423 PHY_EDGE_ROW_23_Right_23
*1424 PHY_EDGE_ROW_24_Left_61
*1425 PHY_EDGE_ROW_24_Right_24
*1426 PHY_EDGE_ROW_25_Left_62
*1427 PHY_EDGE_ROW_25_Right_25
*1428 PHY_EDGE_ROW_26_Left_63
*1429 PHY_EDGE_ROW_26_Right_26
*1430 PHY_EDGE_ROW_27_Left_64
*1431 PHY_EDGE_ROW_27_Right_27
*1432 PHY_EDGE_ROW_28_Left_65
*1433 PHY_EDGE_ROW_28_Right_28
*1434 PHY_EDGE_ROW_29_Left_66
*1435 PHY_EDGE_ROW_29_Right_29
*1436 PHY_EDGE_ROW_2_Left_39
*1437 PHY_EDGE_ROW_2_Right_2
*1438 PHY_EDGE_ROW_30_Left_67
*1439 PHY_EDGE_ROW_30_Right_30
*1440 PHY_EDGE_ROW_31_Left_68
*1441 PHY_EDGE_ROW_31_Right_31
*1442 PHY_EDGE_ROW_32_Left_69
*1443 PHY_EDGE_ROW_32_Right_32
*1444 PHY_EDGE_ROW_33_Left_70
*1445 PHY_EDGE_ROW_33_Right_33
*1446 PHY_EDGE_ROW_34_Left_71
*1447 PHY_EDGE_ROW_34_Right_34
*1448 PHY_EDGE_ROW_35_Left_72
*1449 PHY_EDGE_ROW_35_Right_35
*1450 PHY_EDGE_ROW_36_Left_73
*1451 PHY_EDGE_ROW_36_Right_36
*1452 PHY_EDGE_ROW_3_Left_40
*1453 PHY_EDGE_ROW_3_Right_3
*1454 PHY_EDGE_ROW_4_Left_41
*1455 PHY_EDGE_ROW_4_Right_4
*1456 PHY_EDGE_ROW_5_Left_42
*1457 PHY_EDGE_ROW_5_Right_5
*1458 PHY_EDGE_ROW_6_Left_43
*1459 PHY_EDGE_ROW_6_Right_6
*1460 PHY_EDGE_ROW_7_Left_44
*1461 PHY_EDGE_ROW_7_Right_7
*1462 PHY_EDGE_ROW_8_Left_45
*1463 PHY_EDGE_ROW_8_Right_8
*1464 PHY_EDGE_ROW_9_Left_46
*1465 PHY_EDGE_ROW_9_Right_9
*1466 TAP_TAPCELL_ROW_0_74
*1467 TAP_TAPCELL_ROW_0_75
*1468 TAP_TAPCELL_ROW_0_76
*1469 TAP_TAPCELL_ROW_0_77
*1470 TAP_TAPCELL_ROW_0_78
*1471 TAP_TAPCELL_ROW_0_79
*1472 TAP_TAPCELL_ROW_0_80
*1473 TAP_TAPCELL_ROW_10_112
*1474 TAP_TAPCELL_ROW_10_113
*1475 TAP_TAPCELL_ROW_10_114
*1476 TAP_TAPCELL_ROW_10_115
*1477 TAP_TAPCELL_ROW_11_116
*1478 TAP_TAPCELL_ROW_11_117
*1479 TAP_TAPCELL_ROW_11_118
*1480 TAP_TAPCELL_ROW_12_119
*1481 TAP_TAPCELL_ROW_12_120
*1482 TAP_TAPCELL_ROW_12_121
*1483 TAP_TAPCELL_ROW_12_122
*1484 TAP_TAPCELL_ROW_13_123
*1485 TAP_TAPCELL_ROW_13_124
*1486 TAP_TAPCELL_ROW_13_125
*1487 TAP_TAPCELL_ROW_14_126
*1488 TAP_TAPCELL_ROW_14_127
*1489 TAP_TAPCELL_ROW_14_128
*1490 TAP_TAPCELL_ROW_14_129
*1491 TAP_TAPCELL_ROW_15_130
*1492 TAP_TAPCELL_ROW_15_131
*1493 TAP_TAPCELL_ROW_15_132
*1494 TAP_TAPCELL_ROW_16_133
*1495 TAP_TAPCELL_ROW_16_134
*1496 TAP_TAPCELL_ROW_16_135
*1497 TAP_TAPCELL_ROW_16_136
*1498 TAP_TAPCELL_ROW_17_137
*1499 TAP_TAPCELL_ROW_17_138
*1500 TAP_TAPCELL_ROW_17_139
*1501 TAP_TAPCELL_ROW_18_140
*1502 TAP_TAPCELL_ROW_18_141
*1503 TAP_TAPCELL_ROW_18_142
*1504 TAP_TAPCELL_ROW_18_143
*1505 TAP_TAPCELL_ROW_19_144
*1506 TAP_TAPCELL_ROW_19_145
*1507 TAP_TAPCELL_ROW_19_146
*1508 TAP_TAPCELL_ROW_1_81
*1509 TAP_TAPCELL_ROW_1_82
*1510 TAP_TAPCELL_ROW_1_83
*1511 TAP_TAPCELL_ROW_20_147
*1512 TAP_TAPCELL_ROW_20_148
*1513 TAP_TAPCELL_ROW_20_149
*1514 TAP_TAPCELL_ROW_20_150
*1515 TAP_TAPCELL_ROW_21_151
*1516 TAP_TAPCELL_ROW_21_152
*1517 TAP_TAPCELL_ROW_21_153
*1518 TAP_TAPCELL_ROW_22_154
*1519 TAP_TAPCELL_ROW_22_155
*1520 TAP_TAPCELL_ROW_22_156
*1521 TAP_TAPCELL_ROW_22_157
*1522 TAP_TAPCELL_ROW_23_158
*1523 TAP_TAPCELL_ROW_23_159
*1524 TAP_TAPCELL_ROW_23_160
*1525 TAP_TAPCELL_ROW_24_161
*1526 TAP_TAPCELL_ROW_24_162
*1527 TAP_TAPCELL_ROW_24_163
*1528 TAP_TAPCELL_ROW_24_164
*1529 TAP_TAPCELL_ROW_25_165
*1530 TAP_TAPCELL_ROW_25_166
*1531 TAP_TAPCELL_ROW_25_167
*1532 TAP_TAPCELL_ROW_26_168
*1533 TAP_TAPCELL_ROW_26_169
*1534 TAP_TAPCELL_ROW_26_170
*1535 TAP_TAPCELL_ROW_26_171
*1536 TAP_TAPCELL_ROW_27_172
*1537 TAP_TAPCELL_ROW_27_173
*1538 TAP_TAPCELL_ROW_27_174
*1539 TAP_TAPCELL_ROW_28_175
*1540 TAP_TAPCELL_ROW_28_176
*1541 TAP_TAPCELL_ROW_28_177
*1542 TAP_TAPCELL_ROW_28_178
*1543 TAP_TAPCELL_ROW_29_179
*1544 TAP_TAPCELL_ROW_29_180
*1545 TAP_TAPCELL_ROW_29_181
*1546 TAP_TAPCELL_ROW_2_84
*1547 TAP_TAPCELL_ROW_2_85
*1548 TAP_TAPCELL_ROW_2_86
*1549 TAP_TAPCELL_ROW_2_87
*1550 TAP_TAPCELL_ROW_30_182
*1551 TAP_TAPCELL_ROW_30_183
*1552 TAP_TAPCELL_ROW_30_184
*1553 TAP_TAPCELL_ROW_30_185
*1554 TAP_TAPCELL_ROW_31_186
*1555 TAP_TAPCELL_ROW_31_187
*1556 TAP_TAPCELL_ROW_31_188
*1557 TAP_TAPCELL_ROW_32_189
*1558 TAP_TAPCELL_ROW_32_190
*1559 TAP_TAPCELL_ROW_32_191
*1560 TAP_TAPCELL_ROW_32_192
*1561 TAP_TAPCELL_ROW_33_193
*1562 TAP_TAPCELL_ROW_33_194
*1563 TAP_TAPCELL_ROW_33_195
*1564 TAP_TAPCELL_ROW_34_196
*1565 TAP_TAPCELL_ROW_34_197
*1566 TAP_TAPCELL_ROW_34_198
*1567 TAP_TAPCELL_ROW_34_199
*1568 TAP_TAPCELL_ROW_35_200
*1569 TAP_TAPCELL_ROW_35_201
*1570 TAP_TAPCELL_ROW_35_202
*1571 TAP_TAPCELL_ROW_36_203
*1572 TAP_TAPCELL_ROW_36_204
*1573 TAP_TAPCELL_ROW_36_205
*1574 TAP_TAPCELL_ROW_36_206
*1575 TAP_TAPCELL_ROW_36_207
*1576 TAP_TAPCELL_ROW_36_208
*1577 TAP_TAPCELL_ROW_36_209
*1578 TAP_TAPCELL_ROW_3_88
*1579 TAP_TAPCELL_ROW_3_89
*1580 TAP_TAPCELL_ROW_3_90
*1581 TAP_TAPCELL_ROW_4_91
*1582 TAP_TAPCELL_ROW_4_92
*1583 TAP_TAPCELL_ROW_4_93
*1584 TAP_TAPCELL_ROW_4_94
*1585 TAP_TAPCELL_ROW_5_95
*1586 TAP_TAPCELL_ROW_5_96
*1587 TAP_TAPCELL_ROW_5_97
*1588 TAP_TAPCELL_ROW_6_100
*1589 TAP_TAPCELL_ROW_6_101
*1590 TAP_TAPCELL_ROW_6_98
*1591 TAP_TAPCELL_ROW_6_99
*1592 TAP_TAPCELL_ROW_7_102
*1593 TAP_TAPCELL_ROW_7_103
*1594 TAP_TAPCELL_ROW_7_104
*1595 TAP_TAPCELL_ROW_8_105
*1596 TAP_TAPCELL_ROW_8_106
*1597 TAP_TAPCELL_ROW_8_107
*1598 TAP_TAPCELL_ROW_8_108
*1599 TAP_TAPCELL_ROW_9_109
*1600 TAP_TAPCELL_ROW_9_110
*1601 TAP_TAPCELL_ROW_9_111
*1602 _444_
*1603 _445_
*1604 _446_
*1605 _447_
*1606 _448_
*1607 _449_
*1608 _450_
*1609 _451_
*1610 _452_
*1611 _453_
*1612 _454_
*1613 _455_
*1614 _456_
*1615 _457_
*1616 _458_
*1617 _459_
*1618 _460_
*1619 _461_
*1620 _462_
*1621 _463_
*1622 _464_
*1623 _465_
*1624 _466_
*1625 _467_
*1626 _468_
*1627 _469_
*1628 _470_
*1629 _471_
*1630 _472_
*1631 _473_
*1632 _474_
*1633 _475_
*1634 _476_
*1635 _477_
*1636 _478_
*1637 _479_
*1638 _480_
*1639 _481_
*1640 _482_
*1641 _483_
*1642 _484_
*1643 _485_
*1644 _486_
*1645 _487_
*1646 _488_
*1647 _489_
*1648 _490_
*1649 _491_
*1650 _492_
*1651 _493_
*1652 _494_
*1653 _495_
*1654 _496_
*1655 _497_
*1656 _498_
*1657 _499_
*1658 _500_
*1659 _501_
*1660 _502_
*1661 _503_
*1662 _504_
*1663 _505_
*1664 _506_
*1665 _507_
*1666 _508_
*1667 _509_
*1668 _510_
*1669 _511_
*1670 _512_
*1671 _513_
*1672 _514_
*1673 _515_
*1674 _516_
*1675 _517_
*1676 _518_
*1677 _519_
*1678 _520_
*1679 _521_
*1680 _522_
*1681 _523_
*1682 _524_
*1683 _525_
*1684 _526_
*1685 _527_
*1686 _528_
*1687 _529_
*1688 _530_
*1689 _531_
*1690 _532_
*1691 _533_
*1692 _534_
*1693 _535_
*1694 _536_
*1695 _537_
*1696 _538_
*1697 _539_
*1698 _540_
*1699 _541_
*1700 _542_
*1701 _543_
*1702 _544_
*1703 _545_
*1704 _546_
*1705 _547_