*SPEF "ieee 1481-1999"
*DESIGN "mult_seq_16x16"
*DATE "11:11:11 Fri 11 11, 1111"
*VENDOR "OpenRCX"
*PROGRAM "Parallel Extraction"
*VERSION "1.0"
*DESIGN_FLOW "NAME_SCOPE LOCAL" "PIN_CAP NONE"
*DIVIDER /
*DELIMITER :
*BUS_DELIMITER []
*T_UNIT 1 NS
*C_UNIT 1 PF
*R_UNIT 1 OHM
*L_UNIT 1 HENRY

*NAME_MAP
*3 clk
*4 done
*5 mcand[0]
*6 mcand[10]
*7 mcand[11]
*8 mcand[12]
*9 mcand[13]
*10 mcand[14]
*11 mcand[15]
*12 mcand[1]
*13 mcand[2]
*14 mcand[3]
*15 mcand[4]
*16 mcand[5]
*17 mcand[6]
*18 mcand[7]
*19 mcand[8]
*20 mcand[9]
*21 mplier[0]
*22 mplier[10]
*23 mplier[11]
*24 mplier[12]
*25 mplier[13]
*26 mplier[14]
*27 mplier[15]
*28 mplier[1]
*29 mplier[2]
*30 mplier[3]
*31 mplier[4]
*32 mplier[5]
*33 mplier[6]
*34 mplier[7]
*35 mplier[8]
*36 mplier[9]
*37 product[0]
*38 product[10]
*39 product[11]
*40 product[12]
*41 product[13]
*42 product[14]
*43 product[15]
*44 product[16]
*45 product[17]
*46 product[18]
*47 product[19]
*48 product[1]
*49 product[20]
*50 product[21]
*51 product[22]
*52 product[23]
*53 product[24]
*54 product[25]
*55 product[26]
*56 product[27]
*57 product[28]
*58 product[29]
*59 product[2]
*60 product[30]
*61 product[31]
*62 product[3]
*63 product[4]
*64 product[5]
*65 product[6]
*66 product[7]
*67 product[8]
*68 product[9]
*69 st
*70 _000_
*71 _001_
*72 _002_
*73 _003_
*74 _004_
*75 _005_
*76 _006_
*77 _007_
*78 _008_
*79 _009_
*80 _010_
*81 _011_
*82 _012_
*83 _013_
*84 _014_
*85 _015_
*86 _016_
*87 _017_
*88 _018_
*89 _019_
*90 _020_
*91 _021_
*92 _022_
*93 _023_
*94 _024_
*95 _025_
*96 _026_
*97 _027_
*98 _028_
*99 _029_
*100 _030_
*101 _031_
*102 _032_
*103 _033_
*104 _034_
*105 _035_
*106 _036_
*107 _037_
*108 _038_
*109 _039_
*110 _040_
*111 _041_
*112 _042_
*113 _043_
*114 _044_
*115 _045_
*116 _046_
*117 _047_
*118 _048_
*119 _049_
*120 _050_
*121 _051_
*122 _052_
*123 _053_
*124 _054_
*125 _055_
*126 _056_
*127 _057_
*128 _058_
*129 _059_
*130 _060_
*131 _061_
*132 _062_
*133 _063_
*134 _064_
*135 _065_
*136 _066_
*137 _067_
*138 _068_
*139 _069_
*140 _070_
*141 _071_
*142 _072_
*143 _073_
*144 _074_
*145 _075_
*146 _076_
*147 _077_
*148 _078_
*149 _079_
*150 _080_
*151 _081_
*152 _082_
*153 _083_
*154 _084_
*155 _085_
*156 _086_
*157 _087_
*158 _088_
*159 _089_
*160 _090_
*161 _091_
*162 _092_
*163 _093_
*164 _094_
*165 _095_
*166 _096_
*167 _097_
*168 _098_
*169 _099_
*170 _100_
*171 _101_
*172 _102_
*173 _103_
*174 _104_
*175 _105_
*176 _106_
*177 _107_
*178 _108_
*179 _109_
*180 _110_
*181 _111_
*182 _112_
*183 _113_
*184 _114_
*185 _115_
*186 _116_
*187 _117_
*188 _118_
*189 _119_
*190 _120_
*191 _121_
*192 _122_
*193 _123_
*194 _124_
*195 _125_
*196 _126_
*197 _127_
*198 _128_
*199 _129_
*200 _130_
*201 _131_
*202 _132_
*203 _133_
*204 _134_
*205 _135_
*206 _136_
*207 _137_
*208 _138_
*209 _139_
*210 _140_
*211 _141_
*212 _142_
*213 _143_
*214 _144_
*215 _145_
*216 _146_
*217 _147_
*218 _148_
*219 _149_
*220 _150_
*221 _151_
*222 _152_
*223 _153_
*224 _154_
*225 _155_
*226 _156_
*227 _157_
*228 _158_
*229 _159_
*230 _160_
*231 _161_
*232 _162_
*233 _163_
*234 _164_
*235 _165_
*236 _166_
*237 _167_
*238 _168_
*239 _169_
*240 _170_
*241 _171_
*242 _172_
*243 _173_
*244 _174_
*245 _175_
*246 _176_
*247 _177_
*248 _178_
*249 _179_
*250 _180_
*251 _181_
*252 _182_
*253 _183_
*254 _184_
*255 _185_
*256 _186_
*257 _187_
*258 _188_
*259 _189_
*260 _190_
*261 _191_
*262 _192_
*263 _193_
*264 _194_
*265 _195_
*266 _196_
*267 _197_
*268 _198_
*269 _199_
*270 _200_
*271 _201_
*272 _202_
*273 _203_
*274 _204_
*275 _205_
*276 _206_
*277 _207_
*278 _208_
*279 acu_act\[32\]
*280 clknet_0_clk
*281 clknet_2_0__leaf_clk
*282 clknet_2_1__leaf_clk
*283 clknet_2_2__leaf_clk
*284 clknet_2_3__leaf_clk
*285 contador_act\[0\]
*286 contador_act\[1\]
*287 contador_act\[2\]
*288 contador_act\[3\]
*289 contador_act\[4\]
*290 estado_act\[0\]
*291 estado_act\[1\]
*292 net1
*293 net10
*294 net11
*295 net12
*296 net13
*297 net14
*298 net15
*299 net16
*300 net17
*301 net18
*302 net19
*303 net2
*304 net20
*305 net21
*306 net22
*307 net23
*308 net24
*309 net25
*310 net26
*311 net27
*312 net28
*313 net29
*314 net3
*315 net30
*316 net31
*317 net32
*318 net33
*319 net34
*320 net35
*321 net36
*322 net37
*323 net38
*324 net39
*325 net4
*326 net40
*327 net41
*328 net42
*329 net43
*330 net44
*331 net45
*332 net46
*333 net47
*334 net48
*335 net49
*336 net5
*337 net50
*338 net51
*339 net52
*340 net53
*341 net54
*342 net55
*343 net56
*344 net57
*345 net58
*346 net59
*347 net6
*348 net60
*349 net61
*350 net62
*351 net63
*352 net64
*353 net65
*354 net66
*355 net67
*356 net68
*357 net69
*358 net7
*359 net70
*360 net71
*361 net72
*362 net73
*363 net74
*364 net75
*365 net76
*366 net77
*367 net78
*368 net79
*369 net8
*370 net80
*371 net81
*372 net82
*373 net83
*374 net84
*375 net85
*376 net86
*377 net87
*378 net88
*379 net89
*380 net9
*381 net90
*382 net91
*383 net92
*384 net93
*385 FILLER_0_0_101
*386 FILLER_0_0_111
*387 FILLER_0_0_128
*388 FILLER_0_0_132
*389 FILLER_0_0_141
*390 FILLER_0_0_25
*391 FILLER_0_0_46
*392 FILLER_0_0_6
*393 FILLER_0_0_66
*394 FILLER_0_0_82
*395 FILLER_0_10_117
*396 FILLER_0_10_121
*397 FILLER_0_10_137
*398 FILLER_0_10_141
*399 FILLER_0_10_147
*400 FILLER_0_10_16
*401 FILLER_0_10_27
*402 FILLER_0_10_43
*403 FILLER_0_10_75
*404 FILLER_0_10_85
*405 FILLER_0_10_9
*406 FILLER_0_10_91
*407 FILLER_0_11_100
*408 FILLER_0_11_113
*409 FILLER_0_11_120
*410 FILLER_0_11_140
*411 FILLER_0_11_15
*412 FILLER_0_11_21
*413 FILLER_0_11_3
*414 FILLER_0_11_49
*415 FILLER_0_11_55
*416 FILLER_0_11_57
*417 FILLER_0_11_65
*418 FILLER_0_11_79
*419 FILLER_0_11_85
*420 FILLER_0_12_119
*421 FILLER_0_12_126
*422 FILLER_0_12_134
*423 FILLER_0_12_138
*424 FILLER_0_12_141
*425 FILLER_0_12_147
*426 FILLER_0_12_19
*427 FILLER_0_12_27
*428 FILLER_0_12_35
*429 FILLER_0_12_49
*430 FILLER_0_12_85
*431 FILLER_0_12_89
*432 FILLER_0_13_110
*433 FILLER_0_13_130
*434 FILLER_0_13_142
*435 FILLER_0_13_15
*436 FILLER_0_13_153
*437 FILLER_0_13_24
*438 FILLER_0_13_28
*439 FILLER_0_13_3
*440 FILLER_0_13_37
*441 FILLER_0_13_49
*442 FILLER_0_13_55
*443 FILLER_0_13_57
*444 FILLER_0_14_106
*445 FILLER_0_14_119
*446 FILLER_0_14_124
*447 FILLER_0_14_130
*448 FILLER_0_14_15
*449 FILLER_0_14_27
*450 FILLER_0_14_29
*451 FILLER_0_14_45
*452 FILLER_0_14_6
*453 FILLER_0_14_64
*454 FILLER_0_14_70
*455 FILLER_0_14_82
*456 FILLER_0_14_85
*457 FILLER_0_15_102
*458 FILLER_0_15_110
*459 FILLER_0_15_123
*460 FILLER_0_15_134
*461 FILLER_0_15_138
*462 FILLER_0_15_148
*463 FILLER_0_15_30
*464 FILLER_0_15_38
*465 FILLER_0_15_47
*466 FILLER_0_15_55
*467 FILLER_0_15_57
*468 FILLER_0_15_73
*469 FILLER_0_16_105
*470 FILLER_0_16_117
*471 FILLER_0_16_125
*472 FILLER_0_16_13
*473 FILLER_0_16_137
*474 FILLER_0_16_141
*475 FILLER_0_16_150
*476 FILLER_0_16_154
*477 FILLER_0_16_25
*478 FILLER_0_16_35
*479 FILLER_0_16_6
*480 FILLER_0_17_110
*481 FILLER_0_17_113
*482 FILLER_0_17_122
*483 FILLER_0_17_149
*484 FILLER_0_17_16
*485 FILLER_0_17_32
*486 FILLER_0_17_40
*487 FILLER_0_17_52
*488 FILLER_0_17_76
*489 FILLER_0_17_86
*490 FILLER_0_17_98
*491 FILLER_0_18_111
*492 FILLER_0_18_121
*493 FILLER_0_18_125
*494 FILLER_0_18_134
*495 FILLER_0_18_14
*496 FILLER_0_18_141
*497 FILLER_0_18_147
*498 FILLER_0_18_151
*499 FILLER_0_18_22
*500 FILLER_0_18_34
*501 FILLER_0_18_41
*502 FILLER_0_18_60
*503 FILLER_0_18_75
*504 FILLER_0_18_83
*505 FILLER_0_18_85
*506 FILLER_0_18_93
*507 FILLER_0_18_99
*508 FILLER_0_19_107
*509 FILLER_0_19_111
*510 FILLER_0_19_113
*511 FILLER_0_19_125
*512 FILLER_0_19_135
*513 FILLER_0_19_147
*514 FILLER_0_19_15
*515 FILLER_0_19_3
*516 FILLER_0_19_33
*517 FILLER_0_19_41
*518 FILLER_0_19_51
*519 FILLER_0_19_55
*520 FILLER_0_19_60
*521 FILLER_0_19_87
*522 FILLER_0_1_121
*523 FILLER_0_1_141
*524 FILLER_0_1_19
*525 FILLER_0_1_34
*526 FILLER_0_1_51
*527 FILLER_0_1_55
*528 FILLER_0_1_89
*529 FILLER_0_20_100
*530 FILLER_0_20_117
*531 FILLER_0_20_129
*532 FILLER_0_20_137
*533 FILLER_0_20_149
*534 FILLER_0_20_18
*535 FILLER_0_20_26
*536 FILLER_0_20_35
*537 FILLER_0_20_44
*538 FILLER_0_20_52
*539 FILLER_0_20_6
*540 FILLER_0_20_69
*541 FILLER_0_20_81
*542 FILLER_0_20_85
*543 FILLER_0_21_101
*544 FILLER_0_21_108
*545 FILLER_0_21_113
*546 FILLER_0_21_149
*547 FILLER_0_21_18
*548 FILLER_0_21_22
*549 FILLER_0_21_6
*550 FILLER_0_21_68
*551 FILLER_0_22_104
*552 FILLER_0_22_122
*553 FILLER_0_22_134
*554 FILLER_0_22_141
*555 FILLER_0_22_15
*556 FILLER_0_22_27
*557 FILLER_0_22_3
*558 FILLER_0_22_37
*559 FILLER_0_22_45
*560 FILLER_0_22_54
*561 FILLER_0_22_82
*562 FILLER_0_22_85
*563 FILLER_0_23_107
*564 FILLER_0_23_111
*565 FILLER_0_23_113
*566 FILLER_0_23_140
*567 FILLER_0_23_18
*568 FILLER_0_23_35
*569 FILLER_0_23_45
*570 FILLER_0_23_55
*571 FILLER_0_23_6
*572 FILLER_0_23_63
*573 FILLER_0_23_81
*574 FILLER_0_23_89
*575 FILLER_0_24_12
*576 FILLER_0_24_126
*577 FILLER_0_24_138
*578 FILLER_0_24_141
*579 FILLER_0_24_151
*580 FILLER_0_24_20
*581 FILLER_0_24_29
*582 FILLER_0_24_49
*583 FILLER_0_24_67
*584 FILLER_0_24_89
*585 FILLER_0_24_98
*586 FILLER_0_25_103
*587 FILLER_0_25_122
*588 FILLER_0_25_128
*589 FILLER_0_25_135
*590 FILLER_0_25_139
*591 FILLER_0_25_15
*592 FILLER_0_25_153
*593 FILLER_0_25_29
*594 FILLER_0_25_45
*595 FILLER_0_25_54
*596 FILLER_0_25_57
*597 FILLER_0_25_68
*598 FILLER_0_25_72
*599 FILLER_0_25_76
*600 FILLER_0_25_83
*601 FILLER_0_25_93
*602 FILLER_0_25_97
*603 FILLER_0_2_111
*604 FILLER_0_2_12
*605 FILLER_0_2_129
*606 FILLER_0_2_137
*607 FILLER_0_2_141
*608 FILLER_0_2_152
*609 FILLER_0_2_27
*610 FILLER_0_2_70
*611 FILLER_0_2_82
*612 FILLER_0_2_85
*613 FILLER_0_3_101
*614 FILLER_0_3_109
*615 FILLER_0_3_113
*616 FILLER_0_3_125
*617 FILLER_0_3_137
*618 FILLER_0_3_146
*619 FILLER_0_3_35
*620 FILLER_0_3_40
*621 FILLER_0_3_52
*622 FILLER_0_3_57
*623 FILLER_0_3_65
*624 FILLER_0_3_83
*625 FILLER_0_3_89
*626 FILLER_0_3_9
*627 FILLER_0_4_109
*628 FILLER_0_4_119
*629 FILLER_0_4_128
*630 FILLER_0_4_139
*631 FILLER_0_4_154
*632 FILLER_0_4_16
*633 FILLER_0_4_42
*634 FILLER_0_4_68
*635 FILLER_0_4_78
*636 FILLER_0_4_85
*637 FILLER_0_4_97
*638 FILLER_0_5_100
*639 FILLER_0_5_111
*640 FILLER_0_5_113
*641 FILLER_0_5_13
*642 FILLER_0_5_131
*643 FILLER_0_5_149
*644 FILLER_0_5_17
*645 FILLER_0_5_3
*646 FILLER_0_5_38
*647 FILLER_0_5_43
*648 FILLER_0_5_57
*649 FILLER_0_5_69
*650 FILLER_0_5_75
*651 FILLER_0_5_93
*652 FILLER_0_6_122
*653 FILLER_0_6_149
*654 FILLER_0_6_27
*655 FILLER_0_6_51
*656 FILLER_0_6_57
*657 FILLER_0_6_76
*658 FILLER_0_6_80
*659 FILLER_0_7_110
*660 FILLER_0_7_113
*661 FILLER_0_7_123
*662 FILLER_0_7_135
*663 FILLER_0_7_143
*664 FILLER_0_7_148
*665 FILLER_0_7_21
*666 FILLER_0_7_27
*667 FILLER_0_7_33
*668 FILLER_0_7_51
*669 FILLER_0_7_55
*670 FILLER_0_7_57
*671 FILLER_0_7_77
*672 FILLER_0_7_85
*673 FILLER_0_7_9
*674 FILLER_0_7_99
*675 FILLER_0_8_107
*676 FILLER_0_8_21
*677 FILLER_0_8_27
*678 FILLER_0_8_29
*679 FILLER_0_8_3
*680 FILLER_0_8_35
*681 FILLER_0_8_43
*682 FILLER_0_8_54
*683 FILLER_0_8_73
*684 FILLER_0_8_81
*685 FILLER_0_8_85
*686 FILLER_0_8_95
*687 FILLER_0_9_100
*688 FILLER_0_9_107
*689 FILLER_0_9_111
*690 FILLER_0_9_113
*691 FILLER_0_9_125
*692 FILLER_0_9_137
*693 FILLER_0_9_149
*694 FILLER_0_9_39
*695 FILLER_0_9_43
*696 FILLER_0_9_52
*697 FILLER_0_9_6
*698 PHY_EDGE_ROW_0_Left_26
*699 PHY_EDGE_ROW_0_Right_0
*700 PHY_EDGE_ROW_10_Left_36
*701 PHY_EDGE_ROW_10_Right_10
*702 PHY_EDGE_ROW_11_Left_37
*703 PHY_EDGE_ROW_11_Right_11
*704 PHY_EDGE_ROW_12_Left_38
*705 PHY_EDGE_ROW_12_Right_12
*706 PHY_EDGE_ROW_13_Left_39
*707 PHY_EDGE_ROW_13_Right_13
*708 PHY_EDGE_ROW_14_Left_40
*709 PHY_EDGE_ROW_14_Right_14
*710 PHY_EDGE_ROW_15_Left_41
*711 PHY_EDGE_ROW_15_Right_15
*712 PHY_EDGE_ROW_16_Left_42
*713 PHY_EDGE_ROW_16_Right_16
*714 PHY_EDGE_ROW_17_Left_43
*715 PHY_EDGE_ROW_17_Right_17
*716 PHY_EDGE_ROW_18_Left_44
*717 PHY_EDGE_ROW_18_Right_18
*718 PHY_EDGE_ROW_19_Left_45
*719 PHY_EDGE_ROW_19_Right_19
*720 PHY_EDGE_ROW_1_Left_27
*721 PHY_EDGE_ROW_1_Right_1
*722 PHY_EDGE_ROW_20_Left_46
*723 PHY_EDGE_ROW_20_Right_20
*724 PHY_EDGE_ROW_21_Left_47
*725 PHY_EDGE_ROW_21_Right_21
*726 PHY_EDGE_ROW_22_Left_48
*727 PHY_EDGE_ROW_22_Right_22
*728 PHY_EDGE_ROW_23_Left_49
*729 PHY_EDGE_ROW_23_Right_23
*730 PHY_EDGE_ROW_24_Left_50
*731 PHY_EDGE_ROW_24_Right_24
*732 PHY_EDGE_ROW_25_Left_51
*733 PHY_EDGE_ROW_25_Right_25
*734 PHY_EDGE_ROW_2_Left_28
*735 PHY_EDGE_ROW_2_Right_2
*736 PHY_EDGE_ROW_3_Left_29
*737 PHY_EDGE_ROW_3_Right_3
*738 PHY_EDGE_ROW_4_Left_30
*739 PHY_EDGE_ROW_4_Right_4
*740 PHY_EDGE_ROW_5_Left_31
*741 PHY_EDGE_ROW_5_Right_5
*742 PHY_EDGE_ROW_6_Left_32
*743 PHY_EDGE_ROW_6_Right_6
*744 PHY_EDGE_ROW_7_Left_33
*745 PHY_EDGE_ROW_7_Right_7
*746 PHY_EDGE_ROW_8_Left_34
*747 PHY_EDGE_ROW_8_Right_8
*748 PHY_EDGE_ROW_9_Left_35
*749 PHY_EDGE_ROW_9_Right_9
*750 TAP_TAPCELL_ROW_0_52
*751 TAP_TAPCELL_ROW_0_53
*752 TAP_TAPCELL_ROW_0_54
*753 TAP_TAPCELL_ROW_0_55
*754 TAP_TAPCELL_ROW_0_56
*755 TAP_TAPCELL_ROW_10_79
*756 TAP_TAPCELL_ROW_10_80
*757 TAP_TAPCELL_ROW_10_81
*758 TAP_TAPCELL_ROW_11_82
*759 TAP_TAPCELL_ROW_11_83
*760 TAP_TAPCELL_ROW_12_84
*761 TAP_TAPCELL_ROW_12_85
*762 TAP_TAPCELL_ROW_12_86
*763 TAP_TAPCELL_ROW_13_87
*764 TAP_TAPCELL_ROW_13_88
*765 TAP_TAPCELL_ROW_14_89
*766 TAP_TAPCELL_ROW_14_90
*767 TAP_TAPCELL_ROW_14_91
*768 TAP_TAPCELL_ROW_15_92
*769 TAP_TAPCELL_ROW_15_93
*770 TAP_TAPCELL_ROW_16_94
*771 TAP_TAPCELL_ROW_16_95
*772 TAP_TAPCELL_ROW_16_96
*773 TAP_TAPCELL_ROW_17_97
*774 TAP_TAPCELL_ROW_17_98
*775 TAP_TAPCELL_ROW_18_100
*776 TAP_TAPCELL_ROW_18_101
*777 TAP_TAPCELL_ROW_18_99
*778 TAP_TAPCELL_ROW_19_102
*779 TAP_TAPCELL_ROW_19_103
*780 TAP_TAPCELL_ROW_1_57
*781 TAP_TAPCELL_ROW_1_58
*782 TAP_TAPCELL_ROW_20_104
*783 TAP_TAPCELL_ROW_20_105
*784 TAP_TAPCELL_ROW_20_106
*785 TAP_TAPCELL_ROW_21_107
*786 TAP_TAPCELL_ROW_21_108
*787 TAP_TAPCELL_ROW_22_109
*788 TAP_TAPCELL_ROW_22_110
*789 TAP_TAPCELL_ROW_22_111
*790 TAP_TAPCELL_ROW_23_112
*791 TAP_TAPCELL_ROW_23_113
*792 TAP_TAPCELL_ROW_24_114
*793 TAP_TAPCELL_ROW_24_115
*794 TAP_TAPCELL_ROW_24_116
*795 TAP_TAPCELL_ROW_25_117
*796 TAP_TAPCELL_ROW_25_118
*797 TAP_TAPCELL_ROW_25_119
*798 TAP_TAPCELL_ROW_25_120
*799 TAP_TAPCELL_ROW_25_121
*800 TAP_TAPCELL_ROW_2_59
*801 TAP_TAPCELL_ROW_2_60
*802 TAP_TAPCELL_ROW_2_61
*803 TAP_TAPCELL_ROW_3_62
*804 TAP_TAPCELL_ROW_3_63
*805 TAP_TAPCELL_ROW_4_64
*806 TAP_TAPCELL_ROW_4_65
*807 TAP_TAPCELL_ROW_4_66
*808 TAP_TAPCELL_ROW_5_67
*809 TAP_TAPCELL_ROW_5_68
*810 TAP_TAPCELL_ROW_6_69
*811 TAP_TAPCELL_ROW_6_70
*812 TAP_TAPCELL_ROW_6_71
*813 TAP_TAPCELL_ROW_7_72
*814 TAP_TAPCELL_ROW_7_73
*815 TAP_TAPCELL_ROW_8_74
*816 TAP_TAPCELL_ROW_8_75
*817 TAP_TAPCELL_ROW_8_76
*818 TAP_TAPCELL_ROW_9_77
*819 TAP_TAPCELL_ROW_9_78
*820 _209_
*821 _210_
*822 _211_
*823 _212_
*824 _213_
*825 _214_
*826 _215_
*827 _216_
*828 _217_
*829 _218_
*830 _219_
*831 _220_
*832 _221_
*833 _222_
*834 _223_
*835 _224_
*836 _225_
*837 _226_
*838 _227_
*839 _228_
*840 _229_
*841 _230_
*842 _231_
*843 _232_
*844 _233_
*845 _234_
*846 _235_
*847 _236_
*848 _237_
*849 _238_
*850 _239_
*851 _240_
*852 _241_
*853 _242_
*854 _243_
*855 _244_
*856 _245_
*857 _246_
*858 _247_
*859 _248_
*860 _249_
*861 _250_
*862 _251_
*863 _252_
*864 _253_
*865 _254_
*866 _255_
*867 _256_
*868 _257_
*869 _258_
*870 _259_
*871 _260_
*872 _261_
*873 _262_
*874 _263_
*875 _264_
*876 _265_
*877 _266_
*878 _267_
*879 _268_
*880 _269_
*881 _270_
*882 _271_
*883 _272_
*884 _273_
*885 _274_
*886 _275_
*887 _276_
*888 _277_
*889 _278_
*890 _279_
*891 _280_
*892 _281_
*893 _282_
*894 _283_
*895 _284_
*896 _285_
*897 _286_
*898 _287_
*899 _288_
*900 _289_
*901 _290_
*902 _291_
*903 _292_
*904 _293_
*905 _294_
*906 _295_
*907 _296_
*908 _297_
*909 _298_
*910 _299_
*911 _300_
*912 _301_
*913 _302_
*914 _303_
*915 _304_
*916 _305_
*917 _306_
*918 _307_
*919 _308_
*920 _309_
*921 _310_
*922 _311_
*923 _312_
*924 _313_
*925 _314_
*926 _315_
*927 _316_
*928 _317_
*929 _318_
*930 _319_
*931 _320_
*932 _321_
*933 _322_
*934 _323_
*935 _324_
*936 _325_
*937 _326_
*938 _327_
*939 _328_
*940 _329_
*941 _330_
*942 _331_
*943 _332_
*944 _333_
*945 _334_
*946 _335_
*947 _336_
*948 _337_
*949 _338_
*950 _339_
*951 _340_
*952 _341_
*953 _342_
*954 _343_
*955 _344_
*956 _345_
*957 _346_
*958 _347_
*959 _348_
*960 _349_
*961 _350_
*962 _351_
*963 _352_
*964 _353_
*965 _354_
*966 _355_
*967 _356_
*968 _357_
*969 _358_
*970 _359_
*971 _360_
*972 _361_
*973 _362_
*974 _363_
*975 _364_
*976 _365_
*977 _366_
*978 _367_
*979 _368_
*980 _369_
*981 _370_
*982 _371_
*983 _372_
*984 _373_
*985 _374_
*986 _375_
*987 _376_
*988 _377_
*989 _378_
*990 _379_
*991 _380_
*992 _381_
*993 _382_
*994 _383_
*995 _384_
*996 _385_
*997 _386_
*998 _387_
*999 _388_
*1000 _389_
*1001 _390_
*1002 _391_
*1003 _392_
*1004 _393_
*1005 _394_
*1006 _395_
*1007 _396_
*1008 _397_
*1009 _398_
*1010 _399_
*1011 _400_
*1012 _401_
*1013 _402_
*1014 _403_
*1015 _404_
*1016 _405_
*1017 _406_
*1018 _407_
*1019 _408_
*1020 _409_
*1021 _410_
*1022 _411_
*1023 _412_
*1024 _413_
*1025 _414_
*1026 _415_
*1027 _416_
*1028 _417_
*1029 _418_
*1030 _419_
*1031 _420_
*1032 _421_
*1033 _422_
*1034 _423_
*1035 _424_
*1036 _425_
*1037 _426_
*1038 _427_
*1039 _428_
*1040 _429_
*1041 _430_
*1042 _431_
*1043 _432_
*1044 _433_
*1045 _434_
*1046 _435_
*1047 _436_
*1048 _437_
*1049 _438_
*1050 _439_
*1051 _440_
*1052 _441_
*1053 _442_
*1054 _443_
*1055 _444_
*1056 _445_
*1057 _446_
*1058 _447_
*1059 _448_
*1060 _449_
*1061 _450_
*1062 _451_
*1063 _452_
*1064 _453_
*1065 _454_
*1066 _455_
*1067 _456_
*1068 _457_
*1069 _458_
*1070 clkbuf_0_clk
*1071 clkbuf_2_0__f_clk
*1072 clkbuf_2_1__f_clk
*1073 clkbuf_2_2__f_clk
*1074 clkbuf_2_3__f_clk
*1075 hold1
*1076 hold10
*1077 hold11
*1078 hold12
*1079 hold13
*1080 hold14
*1081 hold15
*1082 hold16
*1083 hold17
*1084 hold18
*1085 hold19
*1086 hold2
*1087 hold20
*1088 hold21
*1089 hold22
*1090 hold23
*1091 hold24
*1092 hold25
*1093 hold26
*1094 hold27
*1095 hold3
*1096 hold4
*1097 hold5
*1098 hold6
*1099 hold7
*1100 hold8
*1101 hold9
*1102 input1
*1103 input10
*1104 input11
*1105 input12
*1106 input13
*1107 input14
*1108 input15
*1109 input16
*1110 input17
*1111 input18
*1112 input19
*1113 input2
*1114 input20
*1115 input21
*1116 input22
*1117 input23
*1118 input24
*1119 input25
*1120 input26
*1121 input27
*1122 input28
*1123 input29
*1124 input3
*1125 input30
*1126 input31
*1127 input32
*1128 input33
*1129 input4
*1130 input5
*1131 input6
*1132 input7
*1133 input8
*1134 input9
*1135 output34
*1136 output35
*1137 output36
*1138 output37
*1139 output38
*1140 output39
*1141 output40
*1142 output41
*1143 output42
*1144 output43
*1145 output44
*1146 output45
*1147 output46
*1148 output47
*1149 output48
*1150 output49
*1151 output50
*1152 output51
*1153 output52
*1154 output53
*1155 output54
*1156 output55
*1157 output56
*1158 output57
*1159 output58
*1160 output59
*1161 output60
*1162 output61
*1163 output62
*1164 output63
*1165 output64
*1166 output65
*1167 output66

*PORTS
clk I
done O
mcand[0] I
mcand[10] I
mcand[11] I
mcand[12] I
mcand[13] I
mcand[14] I
mcand[15] I
mcand[1] I
mcand[2] I
mcand[3] I
mcand[4] I
mcand[5] I
mcand[6] I
mcand[7] I
mcand[8] I
mcand[9] I
mplier[0] I
mplier[10] I
mplier[11] I
mplier[12] I
mplier[13] I
mplier[14] I
mplier[15] I
mplier[1] I
mplier[2] I
mplier[3] I
mplier[4] I
mplier[5] I
mplier[6] I
mplier[7] I
mplier[8] I
mplier[9] I
product[0] O
product[10] O
product[11] O
product[12] O
product[13] O
product[14] O
product[15] O
product[16] O
product[17] O
product[18] O
product[19] O
product[1] O
product[20] O
product[21] O
product[22] O
product[23] O
product[24] O
product[25] O
product[26] O
product[27] O
product[28] O
product[29] O
product[2] O
product[30] O
product[31] O
product[3] O
product[4] O
product[5] O
product[6] O
product[7] O
product[8] O
product[9] O
st I

*D_NET *3 0.00992658
*CONN
*P clk I
*I *1070:A I *D sky130_fd_sc_hd__clkbuf_16
*CAP
1 clk 0.00165317
2 *1070:A 0.00104484
3 *3:19 0.00269801
4 *1070:A *868:A 4.67829e-05
5 *1070:A *868:B 9.71197e-05
6 *1070:A *869:B 5.33005e-05
7 *1070:A *998:B2 7.589e-05
8 *1070:A *1079:A 5.52238e-05
9 *1070:A *333:14 0.00115861
10 *1070:A *333:18 3.95889e-05
11 *3:19 product[9] 0
12 *3:19 *888:B1 0.000220466
13 *3:19 *1001:B1 0
14 *3:19 *1057:D 0.00011419
15 *3:19 *1117:A 0
16 *3:19 *1142:A 0.000712655
17 *3:19 *1145:A 0.000279527
18 *3:19 *160:10 0
19 *3:19 *263:12 0
20 *3:19 *283:69 0.000265194
21 *3:19 *298:18 0
22 *3:19 *330:88 0.001412
*RES
1 clk *3:19 36.3892 
2 *3:19 *1070:A 28.3179 
*END

*D_NET *4 0.000507226
*CONN
*P done O
*I *1135:X O *D sky130_fd_sc_hd__buf_2
*CAP
1 done 0.00024747
2 *1135:X 0.00024747
3 done *1102:A 0
4 done *1110:A 0
5 done *1135:A 1.22852e-05
*RES
1 *1135:X done 18.1949 
*END

*D_NET *5 0.000684238
*CONN
*P mcand[0] I
*I *1102:A I *D sky130_fd_sc_hd__clkbuf_2
*CAP
1 mcand[0] 0.000318679
2 *1102:A 0.000318679
3 *1102:A *1128:A 4.68796e-05
4 done *1102:A 0
*RES
1 mcand[0] *1102:A 21.531 
*END

*D_NET *6 0.00164143
*CONN
*P mcand[10] I
*I *1113:A I *D sky130_fd_sc_hd__buf_1
*CAP
1 mcand[10] 0.000551358
2 *1113:A 0.000551358
3 *1113:A product[21] 6.76337e-05
4 *1113:A product[3] 0.000471084
5 *1113:A *1129:A 0
*RES
1 mcand[10] *1113:A 26.1956 
*END

*D_NET *7 0.0014994
*CONN
*P mcand[11] I
*I *1124:A I *D sky130_fd_sc_hd__buf_1
*CAP
1 mcand[11] 0.000664389
2 *1124:A 0.000664389
3 *1124:A product[25] 6.57026e-05
4 *1124:A *1120:A 0
5 *1124:A *1130:A 0
6 *1124:A *1133:A 0.000104922
7 *1124:A *336:8 0
*RES
1 mcand[11] *1124:A 24.4105 
*END

*D_NET *8 0.00437316
*CONN
*P mcand[12] I
*I *1129:A I *D sky130_fd_sc_hd__buf_1
*CAP
1 mcand[12] 0.0014548
2 *1129:A 0.0014548
3 *1129:A product[12] 0
4 *1129:A product[4] 0.000636612
5 *1129:A *1087:A 9.99853e-05
6 *1129:A *323:50 0.000286459
7 *1129:A *334:53 0
8 *1129:A *335:96 0.000440503
9 *1129:A *340:12 0
10 *1113:A *1129:A 0
*RES
1 mcand[12] *1129:A 39.245 
*END

*D_NET *9 0.00181656
*CONN
*P mcand[13] I
*I *1130:A I *D sky130_fd_sc_hd__buf_1
*CAP
1 mcand[13] 0.000803457
2 *1130:A 0.000803457
3 *1130:A product[25] 0
4 *1130:A *1119:A 0
5 *1130:A *1133:A 3.69573e-05
6 *1130:A *369:26 0.000172691
7 *1124:A *1130:A 0
*RES
1 mcand[13] *1130:A 29.0857 
*END

*D_NET *10 0.000520553
*CONN
*P mcand[14] I
*I *1131:A I *D sky130_fd_sc_hd__buf_1
*CAP
1 mcand[14] 0.000228819
2 *1131:A 0.000228819
3 *1131:A product[15] 3.60635e-05
4 *1131:A *1107:A 0
5 *1131:A *307:14 1.72486e-05
6 *1131:A *347:14 9.60337e-06
*RES
1 mcand[14] *1131:A 18.73 
*END

*D_NET *11 0.000833197
*CONN
*P mcand[15] I
*I *1132:A I *D sky130_fd_sc_hd__buf_1
*CAP
1 mcand[15] 0.000349832
2 *1132:A 0.000349832
3 *1132:A product[24] 0
4 *1132:A *1110:A 4.68796e-05
5 *1132:A *303:16 7.19919e-05
6 *1132:A *358:26 1.46617e-05
*RES
1 mcand[15] *1132:A 20.2491 
*END

*D_NET *12 0.00057324
*CONN
*P mcand[1] I
*I *1133:A I *D sky130_fd_sc_hd__dlymetal6s2s_1
*CAP
1 mcand[1] 0.00021568
2 *1133:A 0.00021568
3 *1133:A *1127:A 0
4 *1124:A *1133:A 0.000104922
5 *1130:A *1133:A 3.69573e-05
*RES
1 mcand[1] *1133:A 18.73 
*END

*D_NET *13 0.00150814
*CONN
*P mcand[2] I
*I *1134:A I *D sky130_fd_sc_hd__buf_1
*CAP
1 mcand[2] 0.000394484
2 *1134:A 0.000394484
3 *1134:A product[7] 0.000299995
4 *1134:A *988:C1 2.58997e-05
5 *1134:A *996:A1 0.000217043
6 *1134:A *1123:A 0
7 *1134:A *345:12 0.000176234
*RES
1 mcand[2] *1134:A 24.1393 
*END

*D_NET *14 0.000675871
*CONN
*P mcand[3] I
*I *1103:A I *D sky130_fd_sc_hd__dlymetal6s2s_1
*CAP
1 mcand[3] 0.000337936
2 *1103:A 0.000337936
3 *1103:A product[14] 0
4 *1103:A *1118:A 0
*RES
1 mcand[3] *1103:A 21.7625 
*END

*D_NET *15 0.00121435
*CONN
*P mcand[4] I
*I *1104:A I *D sky130_fd_sc_hd__buf_1
*CAP
1 mcand[4] 0.000566811
2 *1104:A 0.000566811
3 *1104:A *1125:A 0
4 *1104:A *1154:A 8.07313e-05
*RES
1 mcand[4] *1104:A 25.2107 
*END

*D_NET *16 0.000603351
*CONN
*P mcand[5] I
*I *1105:A I *D sky130_fd_sc_hd__clkbuf_1
*CAP
1 mcand[5] 0.000283093
2 *1105:A 0.000283093
3 *1105:A product[15] 0
4 *1105:A *1117:A 3.71658e-05
5 *1105:A *295:14 0
6 *1105:A *307:14 0
*RES
1 mcand[5] *1105:A 21.1554 
*END

*D_NET *17 0.00275024
*CONN
*P mcand[6] I
*I *1106:A I *D sky130_fd_sc_hd__buf_1
*CAP
1 mcand[6] 0.000835491
2 *1106:A 0.000835491
3 *1106:A product[1] 7.15308e-05
4 *1106:A product[28] 6.57026e-05
5 *1106:A product[30] 0
6 *1106:A *1012:A1 0.000262047
7 *1106:A *1050:CLK 7.43644e-05
8 *1106:A *1097:A 0
9 *1106:A *1118:A 8.26187e-05
10 *1106:A *1147:A 0.000149757
11 *1106:A *114:18 0.000335355
12 *1106:A *332:33 2.37761e-05
13 *1106:A *342:30 1.41029e-05
*RES
1 mcand[6] *1106:A 29.9162 
*END

*D_NET *18 0.000672211
*CONN
*P mcand[7] I
*I *1107:A I *D sky130_fd_sc_hd__buf_1
*CAP
1 mcand[7] 0.000292389
2 *1107:A 0.000292389
3 *1107:A product[17] 0
4 *1107:A *347:14 8.74324e-05
5 *1131:A *1107:A 0
*RES
1 mcand[7] *1107:A 19.9443 
*END

*D_NET *19 0.00381072
*CONN
*P mcand[8] I
*I *1108:A I *D sky130_fd_sc_hd__buf_1
*CAP
1 mcand[8] 0.00131736
2 *1108:A 0.00131736
3 *1108:A product[18] 0
4 *1108:A product[6] 0.000759535
5 *1108:A *1126:A 0
6 *1108:A *1145:A 0.000113462
7 *1108:A *1163:A 0.00015918
8 *1108:A *298:18 0.000143819
9 *1108:A *324:10 0
*RES
1 mcand[8] *1108:A 39.4896 
*END

*D_NET *20 0.000900175
*CONN
*P mcand[9] I
*I *1109:A I *D sky130_fd_sc_hd__clkbuf_1
*CAP
1 mcand[9] 0.000395779
2 *1109:A 0.000395779
3 *1109:A product[10] 0
4 *1109:A product[27] 5.01468e-05
5 *1109:A *1155:A 5.50052e-05
6 *1109:A *299:20 3.466e-06
*RES
1 mcand[9] *1109:A 22.0323 
*END

*D_NET *21 0.000618492
*CONN
*P mplier[0] I
*I *1110:A I *D sky130_fd_sc_hd__buf_1
*CAP
1 mplier[0] 0.000285806
2 *1110:A 0.000285806
3 *1110:A *300:26 0
4 done *1110:A 0
5 *1132:A *1110:A 4.68796e-05
*RES
1 mplier[0] *1110:A 20.9417 
*END

*D_NET *22 0.00190617
*CONN
*P mplier[10] I
*I *1111:A I *D sky130_fd_sc_hd__clkbuf_1
*CAP
1 mplier[10] 0.000691872
2 *1111:A 0.000691872
3 *1111:A *986:A1 4.9071e-05
4 *1111:A *986:A2 8.00806e-05
5 *1111:A *986:B1 2.59355e-05
6 *1111:A *986:B2 4.15394e-05
7 *1111:A *986:C1 9.90367e-05
8 *1111:A *1004:A2 0
9 *1111:A *1004:B2 0.000185643
10 *1111:A *253:22 4.11196e-05
11 *1111:A *253:28 0
*RES
1 mplier[10] *1111:A 27.4429 
*END

*D_NET *23 0.00147258
*CONN
*P mplier[11] I
*I *1112:A I *D sky130_fd_sc_hd__buf_1
*CAP
1 mplier[11] 0.000662531
2 *1112:A 0.000662531
3 *1112:A product[16] 7.77751e-05
4 *1112:A *1154:A 6.97409e-05
*RES
1 mplier[11] *1112:A 26.9786 
*END

*D_NET *24 0.000658203
*CONN
*P mplier[12] I
*I *1114:A I *D sky130_fd_sc_hd__buf_1
*CAP
1 mplier[12] 0.000311872
2 *1114:A 0.000311872
3 *1114:A product[10] 0
4 *1114:A *1127:A 3.44598e-05
5 *1114:A *314:10 0
*RES
1 mplier[12] *1114:A 21.1203 
*END

*D_NET *25 0.000536541
*CONN
*P mplier[13] I
*I *1115:A I *D sky130_fd_sc_hd__clkbuf_1
*CAP
1 mplier[13] 0.00025136
2 *1115:A 0.00025136
3 *1115:A product[17] 3.38206e-05
4 *1115:A product[8] 0
5 *1115:A *248:34 0
*RES
1 mplier[13] *1115:A 20.5482 
*END

*D_NET *26 0.00236979
*CONN
*P mplier[14] I
*I *1116:A I *D sky130_fd_sc_hd__clkbuf_1
*CAP
1 mplier[14] 0.000979617
2 *1116:A 0.000979617
3 *1116:A product[20] 0.00036192
4 *1116:A *1050:D 4.86349e-05
5 *1116:A *1118:A 0
*RES
1 mplier[14] *1116:A 32.2821 
*END

*D_NET *27 0.000581982
*CONN
*P mplier[15] I
*I *1117:A I *D sky130_fd_sc_hd__clkbuf_1
*CAP
1 mplier[15] 0.000254917
2 *1117:A 0.000254917
3 *1117:A *307:14 3.49834e-05
4 *1105:A *1117:A 3.71658e-05
5 *3:19 *1117:A 0
*RES
1 mplier[15] *1117:A 19.0336 
*END

*D_NET *28 0.000645529
*CONN
*P mplier[1] I
*I *1118:A I *D sky130_fd_sc_hd__clkbuf_1
*CAP
1 mplier[1] 0.000281455
2 *1118:A 0.000281455
3 *1118:A product[1] 0
4 *1103:A *1118:A 0
5 *1106:A *1118:A 8.26187e-05
6 *1116:A *1118:A 0
*RES
1 mplier[1] *1118:A 19.6407 
*END

*D_NET *29 0.00161773
*CONN
*P mplier[2] I
*I *1119:A I *D sky130_fd_sc_hd__clkbuf_1
*CAP
1 mplier[2] 0.000743927
2 *1119:A 0.000743927
3 *1119:A product[25] 2.89114e-05
4 *1119:A *339:40 0.00010096
5 *1130:A *1119:A 0
*RES
1 mplier[2] *1119:A 27.8357 
*END

*D_NET *30 0.00104207
*CONN
*P mplier[3] I
*I *1120:A I *D sky130_fd_sc_hd__buf_1
*CAP
1 mplier[3] 0.000425075
2 *1120:A 0.000425075
3 *1120:A product[25] 0
4 *1120:A *988:A1 5.01883e-05
5 *1120:A *339:40 0.000141734
6 *1124:A *1120:A 0
*RES
1 mplier[3] *1120:A 22.6571 
*END

*D_NET *31 0.00109994
*CONN
*P mplier[4] I
*I *1121:A I *D sky130_fd_sc_hd__clkbuf_1
*CAP
1 mplier[4] 0.000534035
2 *1121:A 0.000534035
3 *1121:A *1154:A 3.18676e-05
*RES
1 mplier[4] *1121:A 24.3893 
*END

*D_NET *32 0.00204867
*CONN
*P mplier[5] I
*I *1122:A I *D sky130_fd_sc_hd__clkbuf_1
*CAP
1 mplier[5] 0.000827534
2 *1122:A 0.000827534
3 *1122:A product[19] 5.65955e-05
4 *1122:A *1101:A 5.71472e-05
5 *1122:A *1154:A 0.000177497
6 *1122:A *1164:A 0
7 *1122:A *331:101 0.00010236
*RES
1 mplier[5] *1122:A 30.675 
*END

*D_NET *33 0.00106369
*CONN
*P mplier[6] I
*I *1123:A I *D sky130_fd_sc_hd__clkbuf_1
*CAP
1 mplier[6] 0.00042244
2 *1123:A 0.00042244
3 *1123:A *988:A1 3.30352e-05
4 *1123:A *996:A1 5.33005e-05
5 *1123:A *339:40 0.000132473
6 *1123:A *345:12 0
7 *1134:A *1123:A 0
*RES
1 mplier[6] *1123:A 22.6571 
*END

*D_NET *34 0.00120903
*CONN
*P mplier[7] I
*I *1125:A I *D sky130_fd_sc_hd__clkbuf_1
*CAP
1 mplier[7] 0.000564147
2 *1125:A 0.000564147
3 *1125:A *1154:A 8.07313e-05
4 *1104:A *1125:A 0
*RES
1 mplier[7] *1125:A 25.2107 
*END

*D_NET *35 0.00173607
*CONN
*P mplier[8] I
*I *1126:A I *D sky130_fd_sc_hd__clkbuf_1
*CAP
1 mplier[8] 0.000754167
2 *1126:A 0.000754167
3 *1126:A product[5] 0.000185902
4 *1126:A product[9] 4.18334e-05
5 *1126:A *1163:A 0
6 *1126:A *1167:A 0
7 *1108:A *1126:A 0
*RES
1 mplier[8] *1126:A 25.8222 
*END

*D_NET *36 0.00047412
*CONN
*P mplier[9] I
*I *1127:A I *D sky130_fd_sc_hd__buf_1
*CAP
1 mplier[9] 0.00021983
2 *1127:A 0.00021983
3 *1114:A *1127:A 3.44598e-05
4 *1133:A *1127:A 0
*RES
1 mplier[9] *1127:A 19.6024 
*END

*D_NET *37 0.00273502
*CONN
*P product[0] O
*I *1136:X O *D sky130_fd_sc_hd__clkbuf_4
*CAP
1 product[0] 0.00072585
2 *1136:X 0.00072585
3 product[0] product[7] 0
4 product[0] *996:B1 4.68016e-05
5 product[0] *996:C1 0.000120284
6 product[0] *1030:D 0.000194678
7 product[0] *1046:CLK 5.50052e-05
8 product[0] *1047:CLK 0.000270264
9 product[0] *1081:A 5.6394e-05
10 product[0] *1160:A 0.00018963
11 product[0] *260:30 0
12 product[0] *344:16 0
13 product[0] *369:26 0.000350259
*RES
1 *1136:X product[0] 31.0857 
*END
