* NGSPICE file created from mult_seq_32x32.ext - technology: sky130A

* Black-box entry subcircuit for sky130_fd_sc_hd__o311a_1 abstract view
.subckt sky130_fd_sc_hd__o311a_1 A1 A2 A3 B1 C1 VGND VNB VPB VPWR X
.ends

* Black-box entry subcircuit for sky130_fd_sc_hd__fill_1 abstract view
.subckt sky130_fd_sc_hd__fill_1 VGND VNB VPB VPWR
.ends

* Black-box entry subcircuit for sky130_ef_sc_hd__decap_12 abstract view
.subckt sky130_ef_sc_hd__decap_12 VGND VPWR VPB VNB
.ends

* Black-box entry subcircuit for sky130_fd_sc_hd__decap_4 abstract view
.subckt sky130_fd_sc_hd__decap_4 VGND VNB VPB VPWR
.ends

* Black-box entry subcircuit for sky130_fd_sc_hd__dfxtp_2 abstract view
.subckt sky130_fd_sc_hd__dfxtp_2 CLK D VGND VNB VPB VPWR Q
.ends

* Black-box entry subcircuit for sky130_fd_sc_hd__decap_3 abstract view
.subckt sky130_fd_sc_hd__decap_3 VGND VNB VPB VPWR
.ends

* Black-box entry subcircuit for sky130_fd_sc_hd__a21o_1 abstract view
.subckt sky130_fd_sc_hd__a21o_1 A1 A2 B1 VGND VNB VPB VPWR X
.ends

* Black-box entry subcircuit for sky130_fd_sc_hd__nor2_1 abstract view
.subckt sky130_fd_sc_hd__nor2_1 A B VGND VNB VPB VPWR Y
.ends

* Black-box entry subcircuit for sky130_fd_sc_hd__dfxtp_1 abstract view
.subckt sky130_fd_sc_hd__dfxtp_1 CLK D VGND VNB VPB VPWR Q
.ends

* Black-box entry subcircuit for sky130_fd_sc_hd__o31a_1 abstract view
.subckt sky130_fd_sc_hd__o31a_1 A1 A2 A3 B1 VGND VNB VPB VPWR X
.ends

* Black-box entry subcircuit for sky130_fd_sc_hd__decap_8 abstract view
.subckt sky130_fd_sc_hd__decap_8 VGND VNB VPB VPWR
.ends

* Black-box entry subcircuit for sky130_fd_sc_hd__or2_1 abstract view
.subckt sky130_fd_sc_hd__or2_1 A B VGND VNB VPB VPWR X
.ends

* Black-box entry subcircuit for sky130_fd_sc_hd__a21oi_1 abstract view
.subckt sky130_fd_sc_hd__a21oi_1 A1 A2 B1 VGND VNB VPB VPWR Y
.ends

* Black-box entry subcircuit for sky130_fd_sc_hd__mux2_1 abstract view
.subckt sky130_fd_sc_hd__mux2_1 A0 A1 S VGND VNB VPB VPWR X
.ends

* Black-box entry subcircuit for sky130_fd_sc_hd__dlygate4sd3_1 abstract view
.subckt sky130_fd_sc_hd__dlygate4sd3_1 A VGND VNB VPB VPWR X
.ends

* Black-box entry subcircuit for sky130_fd_sc_hd__fill_2 abstract view
.subckt sky130_fd_sc_hd__fill_2 VGND VNB VPB VPWR
.ends

* Black-box entry subcircuit for sky130_fd_sc_hd__clkbuf_4 abstract view
.subckt sky130_fd_sc_hd__clkbuf_4 A VGND VNB VPB VPWR X
.ends

* Black-box entry subcircuit for sky130_fd_sc_hd__o211a_1 abstract view
.subckt sky130_fd_sc_hd__o211a_1 A1 A2 B1 C1 VGND VNB VPB VPWR X
.ends

* Black-box entry subcircuit for sky130_fd_sc_hd__nand2_1 abstract view
.subckt sky130_fd_sc_hd__nand2_1 A B VGND VNB VPB VPWR Y
.ends

* Black-box entry subcircuit for sky130_fd_sc_hd__tapvpwrvgnd_1 abstract view
.subckt sky130_fd_sc_hd__tapvpwrvgnd_1 VGND VPWR
.ends

* Black-box entry subcircuit for sky130_fd_sc_hd__buf_2 abstract view
.subckt sky130_fd_sc_hd__buf_2 A VGND VNB VPB VPWR X
.ends

* Black-box entry subcircuit for sky130_fd_sc_hd__nand3_1 abstract view
.subckt sky130_fd_sc_hd__nand3_1 A B C VGND VNB VPB VPWR Y
.ends

* Black-box entry subcircuit for sky130_fd_sc_hd__clkbuf_16 abstract view
.subckt sky130_fd_sc_hd__clkbuf_16 A VGND VNB VPB VPWR X
.ends

* Black-box entry subcircuit for sky130_fd_sc_hd__decap_6 abstract view
.subckt sky130_fd_sc_hd__decap_6 VGND VNB VPB VPWR
.ends

* Black-box entry subcircuit for sky130_fd_sc_hd__and3_1 abstract view
.subckt sky130_fd_sc_hd__and3_1 A B C VGND VNB VPB VPWR X
.ends

* Black-box entry subcircuit for sky130_fd_sc_hd__o21ai_1 abstract view
.subckt sky130_fd_sc_hd__o21ai_1 A1 A2 B1 VGND VNB VPB VPWR Y
.ends

* Black-box entry subcircuit for sky130_fd_sc_hd__buf_4 abstract view
.subckt sky130_fd_sc_hd__buf_4 A VGND VNB VPB VPWR X
.ends

* Black-box entry subcircuit for sky130_fd_sc_hd__a211o_1 abstract view
.subckt sky130_fd_sc_hd__a211o_1 A1 A2 B1 C1 VGND VNB VPB VPWR X
.ends

* Black-box entry subcircuit for sky130_fd_sc_hd__o21a_1 abstract view
.subckt sky130_fd_sc_hd__o21a_1 A1 A2 B1 VGND VNB VPB VPWR X
.ends

* Black-box entry subcircuit for sky130_fd_sc_hd__and2_1 abstract view
.subckt sky130_fd_sc_hd__and2_1 A B VGND VNB VPB VPWR X
.ends

* Black-box entry subcircuit for sky130_fd_sc_hd__xnor2_1 abstract view
.subckt sky130_fd_sc_hd__xnor2_1 A B VGND VNB VPB VPWR Y
.ends

* Black-box entry subcircuit for sky130_fd_sc_hd__a22o_1 abstract view
.subckt sky130_fd_sc_hd__a22o_1 A1 A2 B1 B2 VGND VNB VPB VPWR X
.ends

* Black-box entry subcircuit for sky130_fd_sc_hd__a221o_1 abstract view
.subckt sky130_fd_sc_hd__a221o_1 A1 A2 B1 B2 C1 VGND VNB VPB VPWR X
.ends

* Black-box entry subcircuit for sky130_fd_sc_hd__clkbuf_1 abstract view
.subckt sky130_fd_sc_hd__clkbuf_1 A VGND VNB VPB VPWR X
.ends

* Black-box entry subcircuit for sky130_fd_sc_hd__a21boi_1 abstract view
.subckt sky130_fd_sc_hd__a21boi_1 A1 A2 B1_N VGND VNB VPB VPWR Y
.ends

* Black-box entry subcircuit for sky130_fd_sc_hd__or4b_1 abstract view
.subckt sky130_fd_sc_hd__or4b_1 A B C D_N VGND VNB VPB VPWR X
.ends

* Black-box entry subcircuit for sky130_fd_sc_hd__or4_1 abstract view
.subckt sky130_fd_sc_hd__or4_1 A B C D VGND VNB VPB VPWR X
.ends

* Black-box entry subcircuit for sky130_fd_sc_hd__or2b_1 abstract view
.subckt sky130_fd_sc_hd__or2b_1 A B_N VGND VNB VPB VPWR X
.ends

* Black-box entry subcircuit for sky130_fd_sc_hd__a22oi_1 abstract view
.subckt sky130_fd_sc_hd__a22oi_1 A1 A2 B1 B2 VGND VNB VPB VPWR Y
.ends

* Black-box entry subcircuit for sky130_fd_sc_hd__a31o_1 abstract view
.subckt sky130_fd_sc_hd__a31o_1 A1 A2 A3 B1 VGND VNB VPB VPWR X
.ends

* Black-box entry subcircuit for sky130_fd_sc_hd__or3_1 abstract view
.subckt sky130_fd_sc_hd__or3_1 A B C VGND VNB VPB VPWR X
.ends

* Black-box entry subcircuit for sky130_fd_sc_hd__nand4b_1 abstract view
.subckt sky130_fd_sc_hd__nand4b_1 A_N B C D VGND VNB VPB VPWR Y
.ends

* Black-box entry subcircuit for sky130_fd_sc_hd__and4_1 abstract view
.subckt sky130_fd_sc_hd__and4_1 A B C D VGND VNB VPB VPWR X
.ends

* Black-box entry subcircuit for sky130_fd_sc_hd__o21ba_1 abstract view
.subckt sky130_fd_sc_hd__o21ba_1 A1 A2 B1_N VGND VNB VPB VPWR X
.ends

* Black-box entry subcircuit for sky130_fd_sc_hd__a311o_1 abstract view
.subckt sky130_fd_sc_hd__a311o_1 A1 A2 A3 B1 C1 VGND VNB VPB VPWR X
.ends

* Black-box entry subcircuit for sky130_fd_sc_hd__nor2_2 abstract view
.subckt sky130_fd_sc_hd__nor2_2 A B VGND VNB VPB VPWR Y
.ends

* Black-box entry subcircuit for sky130_fd_sc_hd__nand2_2 abstract view
.subckt sky130_fd_sc_hd__nand2_2 A B VGND VNB VPB VPWR Y
.ends

* Black-box entry subcircuit for sky130_fd_sc_hd__xor2_2 abstract view
.subckt sky130_fd_sc_hd__xor2_2 A B VGND VNB VPB VPWR X
.ends

* Black-box entry subcircuit for sky130_fd_sc_hd__inv_2 abstract view
.subckt sky130_fd_sc_hd__inv_2 A VGND VNB VPB VPWR Y
.ends

* Black-box entry subcircuit for sky130_fd_sc_hd__o31a_2 abstract view
.subckt sky130_fd_sc_hd__o31a_2 A1 A2 A3 B1 VGND VNB VPB VPWR X
.ends

* Black-box entry subcircuit for sky130_fd_sc_hd__clkbuf_2 abstract view
.subckt sky130_fd_sc_hd__clkbuf_2 A VGND VNB VPB VPWR X
.ends

* Black-box entry subcircuit for sky130_fd_sc_hd__nand3b_1 abstract view
.subckt sky130_fd_sc_hd__nand3b_1 A_N B C VGND VNB VPB VPWR Y
.ends

* Black-box entry subcircuit for sky130_fd_sc_hd__and3b_1 abstract view
.subckt sky130_fd_sc_hd__and3b_1 A_N B C VGND VNB VPB VPWR X
.ends

* Black-box entry subcircuit for sky130_fd_sc_hd__dlymetal6s2s_1 abstract view
.subckt sky130_fd_sc_hd__dlymetal6s2s_1 A VGND VNB VPB VPWR X
.ends

* Black-box entry subcircuit for sky130_fd_sc_hd__a21bo_1 abstract view
.subckt sky130_fd_sc_hd__a21bo_1 A1 A2 B1_N VGND VNB VPB VPWR X
.ends

* Black-box entry subcircuit for sky130_fd_sc_hd__or2_2 abstract view
.subckt sky130_fd_sc_hd__or2_2 A B VGND VNB VPB VPWR X
.ends

* Black-box entry subcircuit for sky130_fd_sc_hd__buf_1 abstract view
.subckt sky130_fd_sc_hd__buf_1 A VGND VNB VPB VPWR X
.ends

* Black-box entry subcircuit for sky130_fd_sc_hd__nand2_4 abstract view
.subckt sky130_fd_sc_hd__nand2_4 A B VGND VNB VPB VPWR Y
.ends

* Black-box entry subcircuit for sky130_fd_sc_hd__o21bai_2 abstract view
.subckt sky130_fd_sc_hd__o21bai_2 A1 A2 B1_N VGND VNB VPB VPWR Y
.ends

* Black-box entry subcircuit for sky130_fd_sc_hd__o221a_1 abstract view
.subckt sky130_fd_sc_hd__o221a_1 A1 A2 B1 B2 C1 VGND VNB VPB VPWR X
.ends

* Black-box entry subcircuit for sky130_fd_sc_hd__o211ai_4 abstract view
.subckt sky130_fd_sc_hd__o211ai_4 A1 A2 B1 C1 VGND VNB VPB VPWR Y
.ends

* Black-box entry subcircuit for sky130_fd_sc_hd__o2bb2a_1 abstract view
.subckt sky130_fd_sc_hd__o2bb2a_1 A1_N A2_N B1 B2 VGND VNB VPB VPWR X
.ends

* Black-box entry subcircuit for sky130_fd_sc_hd__o22a_1 abstract view
.subckt sky130_fd_sc_hd__o22a_1 A1 A2 B1 B2 VGND VNB VPB VPWR X
.ends

* Black-box entry subcircuit for sky130_fd_sc_hd__and4b_1 abstract view
.subckt sky130_fd_sc_hd__and4b_1 A_N B C D VGND VNB VPB VPWR X
.ends

* Black-box entry subcircuit for sky130_fd_sc_hd__a31oi_2 abstract view
.subckt sky130_fd_sc_hd__a31oi_2 A1 A2 A3 B1 VGND VNB VPB VPWR Y
.ends

* Black-box entry subcircuit for sky130_fd_sc_hd__and2b_1 abstract view
.subckt sky130_fd_sc_hd__and2b_1 A_N B VGND VNB VPB VPWR X
.ends

* Black-box entry subcircuit for sky130_fd_sc_hd__nand4_1 abstract view
.subckt sky130_fd_sc_hd__nand4_1 A B C D VGND VNB VPB VPWR Y
.ends

* Black-box entry subcircuit for sky130_fd_sc_hd__a31oi_1 abstract view
.subckt sky130_fd_sc_hd__a31oi_1 A1 A2 A3 B1 VGND VNB VPB VPWR Y
.ends

* Black-box entry subcircuit for sky130_fd_sc_hd__o2111a_1 abstract view
.subckt sky130_fd_sc_hd__o2111a_1 A1 A2 B1 C1 D1 VGND VNB VPB VPWR X
.ends

* Black-box entry subcircuit for sky130_fd_sc_hd__nand3b_4 abstract view
.subckt sky130_fd_sc_hd__nand3b_4 A_N B C VGND VNB VPB VPWR Y
.ends

* Black-box entry subcircuit for sky130_fd_sc_hd__and4bb_1 abstract view
.subckt sky130_fd_sc_hd__and4bb_1 A_N B_N C D VGND VNB VPB VPWR X
.ends

.subckt mult_seq_32x32 VGND VPWR clk done mcand[0] mcand[10] mcand[11] mcand[12] mcand[13]
+ mcand[14] mcand[15] mcand[16] mcand[17] mcand[18] mcand[19] mcand[1] mcand[20] mcand[21]
+ mcand[22] mcand[23] mcand[24] mcand[25] mcand[26] mcand[27] mcand[28] mcand[29]
+ mcand[2] mcand[30] mcand[31] mcand[3] mcand[4] mcand[5] mcand[6] mcand[7] mcand[8]
+ mcand[9] mplier[0] mplier[10] mplier[11] mplier[12] mplier[13] mplier[14] mplier[15]
+ mplier[16] mplier[17] mplier[18] mplier[19] mplier[1] mplier[20] mplier[21] mplier[22]
+ mplier[23] mplier[24] mplier[25] mplier[26] mplier[27] mplier[28] mplier[29] mplier[2]
+ mplier[30] mplier[31] mplier[3] mplier[4] mplier[5] mplier[6] mplier[7] mplier[8]
+ mplier[9] product[0] product[10] product[11] product[12] product[13] product[14]
+ product[15] product[16] product[17] product[18] product[19] product[1] product[20]
+ product[21] product[22] product[23] product[24] product[25] product[26] product[27]
+ product[28] product[29] product[2] product[30] product[31] product[32] product[33]
+ product[34] product[35] product[36] product[37] product[38] product[39] product[3]
+ product[40] product[41] product[42] product[43] product[44] product[45] product[46]
+ product[47] product[48] product[49] product[4] product[50] product[51] product[52]
+ product[53] product[54] product[55] product[56] product[57] product[58] product[59]
+ product[5] product[60] product[61] product[62] product[63] product[6] product[7]
+ product[8] product[9] st
X_501_ _103_ _106_ _121_ _122_ _111_ VGND VGND VPWR VPWR _123_ sky130_fd_sc_hd__o311a_1
XFILLER_0_1_196 VGND VGND VPWR VPWR sky130_fd_sc_hd__fill_1
XFILLER_0_18_29 VGND VGND VPWR VPWR sky130_fd_sc_hd__fill_1
XFILLER_0_4_93 VGND VPWR VPWR VGND sky130_ef_sc_hd__decap_12
XFILLER_0_36_191 VGND VGND VPWR VPWR sky130_fd_sc_hd__fill_1
XFILLER_0_28_125 VGND VGND VPWR VPWR sky130_fd_sc_hd__decap_4
XFILLER_0_28_103 VGND VGND VPWR VPWR sky130_fd_sc_hd__fill_1
X_895_ clknet_3_7__leaf_clk _006_ VGND VGND VPWR VPWR net96 sky130_fd_sc_hd__dfxtp_2
XFILLER_0_19_169 VGND VGND VPWR VPWR sky130_fd_sc_hd__decap_4
XFILLER_0_19_136 VGND VGND VPWR VPWR sky130_fd_sc_hd__decap_3
XFILLER_0_31_18 VGND VGND VPWR VPWR sky130_fd_sc_hd__fill_1
XFILLER_0_18_191 VGND VGND VPWR VPWR sky130_fd_sc_hd__decap_4
X_680_ _276_ _278_ _274_ VGND VGND VPWR VPWR _283_ sky130_fd_sc_hd__a21o_1
X_878_ _361_ _437_ VGND VGND VPWR VPWR _438_ sky130_fd_sc_hd__nor2_1
X_947_ clknet_3_2__leaf_clk _058_ VGND VGND VPWR VPWR net82 sky130_fd_sc_hd__dfxtp_1
XFILLER_0_16_139 VGND VGND VPWR VPWR sky130_fd_sc_hd__fill_1
XFILLER_0_16_128 VGND VGND VPWR VPWR sky130_fd_sc_hd__decap_3
X_594_ _179_ _192_ _195_ _205_ VGND VGND VPWR VPWR _206_ sky130_fd_sc_hd__o31a_1
XFILLER_0_26_29 VGND VGND VPWR VPWR sky130_fd_sc_hd__decap_8
X_663_ _266_ _267_ VGND VGND VPWR VPWR _268_ sky130_fd_sc_hd__or2_1
X_732_ _325_ _328_ _329_ VGND VGND VPWR VPWR _330_ sky130_fd_sc_hd__a21oi_1
X_801_ net130 _383_ _384_ VGND VGND VPWR VPWR _385_ sky130_fd_sc_hd__mux2_1
Xhold30 net87 VGND VGND VPWR VPWR net160 sky130_fd_sc_hd__dlygate4sd3_1
XFILLER_0_32_50 VGND VPWR VPWR VGND sky130_ef_sc_hd__decap_12
XFILLER_0_35_201 VGND VGND VPWR VPWR sky130_fd_sc_hd__fill_2
XFILLER_0_12_120 VGND VGND VPWR VPWR sky130_fd_sc_hd__fill_1
Xoutput86 net86 VGND VGND VPWR VPWR product[27] sky130_fd_sc_hd__clkbuf_4
X_646_ net145 _210_ _216_ _252_ VGND VGND VPWR VPWR _021_ sky130_fd_sc_hd__o211a_1
X_577_ _181_ _190_ VGND VGND VPWR VPWR _191_ sky130_fd_sc_hd__nand2_1
XTAP_TAPCELL_ROW_26_170 VGND VPWR sky130_fd_sc_hd__tapvpwrvgnd_1
Xoutput97 net97 VGND VGND VPWR VPWR product[37] sky130_fd_sc_hd__buf_2
Xoutput75 net75 VGND VGND VPWR VPWR product[17] sky130_fd_sc_hd__buf_2
X_715_ net121 net20 VGND VGND VPWR VPWR _314_ sky130_fd_sc_hd__or2_1
XFILLER_0_27_83 VGND VPWR VPWR VGND sky130_ef_sc_hd__decap_12
XFILLER_0_7_71 VGND VGND VPWR VPWR sky130_fd_sc_hd__decap_8
X_500_ net94 net23 _112_ VGND VGND VPWR VPWR _122_ sky130_fd_sc_hd__nand3_1
Xclkbuf_3_6__f_clk clknet_0_clk VGND VGND VPWR VPWR clknet_3_6__leaf_clk sky130_fd_sc_hd__clkbuf_16
X_629_ _078_ _236_ _237_ _087_ VGND VGND VPWR VPWR _019_ sky130_fd_sc_hd__o211a_1
XFILLER_0_34_29 VGND VGND VPWR VPWR sky130_fd_sc_hd__decap_6
XFILLER_0_34_18 VGND VGND VPWR VPWR sky130_fd_sc_hd__decap_8
XPHY_EDGE_ROW_21_Right_21 VGND VGND VPWR VPWR sky130_fd_sc_hd__decap_3
XPHY_EDGE_ROW_12_Right_12 VGND VGND VPWR VPWR sky130_fd_sc_hd__decap_3
XFILLER_0_4_83 VGND VGND VPWR VPWR sky130_fd_sc_hd__fill_1
XFILLER_0_36_181 VGND VGND VPWR VPWR sky130_fd_sc_hd__decap_4
XPHY_EDGE_ROW_30_Right_30 VGND VGND VPWR VPWR sky130_fd_sc_hd__decap_3
X_894_ clknet_3_6__leaf_clk _005_ VGND VGND VPWR VPWR net95 sky130_fd_sc_hd__dfxtp_1
XFILLER_0_29_6 VGND VGND VPWR VPWR sky130_fd_sc_hd__fill_1
XFILLER_0_19_148 VGND VGND VPWR VPWR sky130_fd_sc_hd__decap_8
XFILLER_0_10_53 VGND VGND VPWR VPWR sky130_fd_sc_hd__decap_8
XFILLER_0_33_140 VGND VGND VPWR VPWR sky130_fd_sc_hd__decap_8
XFILLER_0_25_129 VGND VGND VPWR VPWR sky130_fd_sc_hd__fill_1
X_877_ contador_act\[1\] contador_act\[0\] _434_ VGND VGND VPWR VPWR _437_ sky130_fd_sc_hd__and3_1
X_946_ clknet_3_2__leaf_clk _057_ VGND VGND VPWR VPWR net81 sky130_fd_sc_hd__dfxtp_1
X_731_ _325_ _328_ _090_ VGND VGND VPWR VPWR _329_ sky130_fd_sc_hd__o21ai_1
X_662_ net115 net14 VGND VGND VPWR VPWR _267_ sky130_fd_sc_hd__nor2_1
Xhold20 net117 VGND VGND VPWR VPWR net150 sky130_fd_sc_hd__dlygate4sd3_1
Xhold31 net68 VGND VGND VPWR VPWR net161 sky130_fd_sc_hd__dlygate4sd3_1
XFILLER_0_1_51 VGND VGND VPWR VPWR sky130_fd_sc_hd__decap_4
X_800_ _075_ VGND VGND VPWR VPWR _384_ sky130_fd_sc_hd__buf_4
X_593_ net106 net5 VGND VGND VPWR VPWR _205_ sky130_fd_sc_hd__or2_1
X_929_ clknet_3_6__leaf_clk _040_ VGND VGND VPWR VPWR net122 sky130_fd_sc_hd__dfxtp_1
XFILLER_0_16_85 VGND VGND VPWR VPWR sky130_fd_sc_hd__decap_4
XFILLER_0_32_62 VGND VPWR VPWR VGND sky130_ef_sc_hd__decap_12
XPHY_EDGE_ROW_6_Right_6 VGND VGND VPWR VPWR sky130_fd_sc_hd__decap_3
XFILLER_0_8_126 VGND VPWR VPWR VGND sky130_ef_sc_hd__decap_12
Xoutput98 net98 VGND VGND VPWR VPWR product[38] sky130_fd_sc_hd__buf_2
X_645_ net114 _082_ _099_ _251_ VGND VGND VPWR VPWR _252_ sky130_fd_sc_hd__a211o_1
X_576_ _154_ _185_ _189_ VGND VGND VPWR VPWR _190_ sky130_fd_sc_hd__o21a_1
XTAP_TAPCELL_ROW_26_171 VGND VPWR sky130_fd_sc_hd__tapvpwrvgnd_1
X_714_ net121 net20 VGND VGND VPWR VPWR _313_ sky130_fd_sc_hd__nand2_1
Xoutput87 net87 VGND VGND VPWR VPWR product[28] sky130_fd_sc_hd__clkbuf_4
Xoutput76 net76 VGND VGND VPWR VPWR product[18] sky130_fd_sc_hd__clkbuf_4
XFILLER_0_27_95 VGND VPWR VPWR VGND sky130_ef_sc_hd__decap_12
XFILLER_0_4_195 VGND VGND VPWR VPWR sky130_fd_sc_hd__fill_1
X_628_ net110 _083_ VGND VGND VPWR VPWR _237_ sky130_fd_sc_hd__or2_1
X_559_ net103 net2 VGND VGND VPWR VPWR _174_ sky130_fd_sc_hd__and2_1
XFILLER_0_1_176 VGND VPWR VPWR VGND sky130_ef_sc_hd__decap_12
XFILLER_0_1_121 VGND VGND VPWR VPWR sky130_fd_sc_hd__decap_3
XTAP_TAPCELL_ROW_3_90 VGND VPWR sky130_fd_sc_hd__tapvpwrvgnd_1
XFILLER_0_11_208 VGND VGND VPWR VPWR sky130_fd_sc_hd__decap_3
XFILLER_0_24_85 VGND VPWR VPWR VGND sky130_ef_sc_hd__decap_12
X_893_ clknet_3_6__leaf_clk _004_ VGND VGND VPWR VPWR net94 sky130_fd_sc_hd__dfxtp_2
XFILLER_0_36_160 VGND VGND VPWR VPWR sky130_fd_sc_hd__decap_4
XFILLER_0_19_30 VGND VGND VPWR VPWR sky130_fd_sc_hd__decap_8
XTAP_TAPCELL_ROW_0_80 VGND VPWR sky130_fd_sc_hd__tapvpwrvgnd_1
XFILLER_0_9_18 VGND VGND VPWR VPWR sky130_fd_sc_hd__fill_1
XPHY_EDGE_ROW_28_Left_65 VGND VGND VPWR VPWR sky130_fd_sc_hd__decap_3
XPHY_EDGE_ROW_12_Left_49 VGND VGND VPWR VPWR sky130_fd_sc_hd__decap_3
X_876_ net137 _434_ _436_ VGND VGND VPWR VPWR _067_ sky130_fd_sc_hd__o21a_1
X_945_ clknet_3_2__leaf_clk _056_ VGND VGND VPWR VPWR net80 sky130_fd_sc_hd__dfxtp_1
Xhold10 net107 VGND VGND VPWR VPWR net140 sky130_fd_sc_hd__dlygate4sd3_1
X_592_ _202_ _203_ VGND VGND VPWR VPWR _204_ sky130_fd_sc_hd__nor2_1
X_730_ _326_ _327_ VGND VGND VPWR VPWR _328_ sky130_fd_sc_hd__nor2_1
XFILLER_0_21_133 VGND VGND VPWR VPWR sky130_fd_sc_hd__decap_3
X_661_ net115 net14 VGND VGND VPWR VPWR _266_ sky130_fd_sc_hd__and2_1
Xhold32 net116 VGND VGND VPWR VPWR net162 sky130_fd_sc_hd__dlygate4sd3_1
Xhold21 net89 VGND VGND VPWR VPWR net151 sky130_fd_sc_hd__dlygate4sd3_1
X_928_ clknet_3_0__leaf_clk _039_ VGND VGND VPWR VPWR net111 sky130_fd_sc_hd__dfxtp_1
XFILLER_0_32_85 VGND VGND VPWR VPWR sky130_fd_sc_hd__decap_4
XFILLER_0_32_74 VGND VGND VPWR VPWR sky130_fd_sc_hd__decap_8
XFILLER_0_32_41 VGND VGND VPWR VPWR sky130_fd_sc_hd__fill_1
XFILLER_0_29_200 VGND VGND VPWR VPWR sky130_fd_sc_hd__fill_1
XTAP_TAPCELL_ROW_29_180 VGND VPWR sky130_fd_sc_hd__tapvpwrvgnd_1
XFILLER_0_16_53 VGND VGND VPWR VPWR sky130_fd_sc_hd__decap_4
XFILLER_0_12_133 VGND VGND VPWR VPWR sky130_fd_sc_hd__fill_1
X_859_ net86 _424_ _407_ VGND VGND VPWR VPWR _425_ sky130_fd_sc_hd__mux2_1
XFILLER_0_8_105 VGND VPWR VPWR VGND sky130_ef_sc_hd__decap_12
XFILLER_0_8_138 VGND VGND VPWR VPWR sky130_fd_sc_hd__fill_2
XFILLER_0_8_149 VGND VGND VPWR VPWR sky130_fd_sc_hd__fill_2
X_644_ _108_ _250_ VGND VGND VPWR VPWR _251_ sky130_fd_sc_hd__nor2_1
X_575_ _182_ _187_ _188_ VGND VGND VPWR VPWR _189_ sky130_fd_sc_hd__and3_1
X_713_ net120 _210_ _216_ _312_ VGND VGND VPWR VPWR _028_ sky130_fd_sc_hd__o211a_1
Xoutput99 net99 VGND VGND VPWR VPWR product[39] sky130_fd_sc_hd__clkbuf_4
Xoutput66 net66 VGND VGND VPWR VPWR done sky130_fd_sc_hd__clkbuf_4
Xoutput88 net88 VGND VGND VPWR VPWR product[29] sky130_fd_sc_hd__clkbuf_4
Xoutput77 net77 VGND VGND VPWR VPWR product[19] sky130_fd_sc_hd__buf_2
XFILLER_0_9_3 VGND VGND VPWR VPWR sky130_fd_sc_hd__fill_2
XFILLER_0_27_74 VGND VGND VPWR VPWR sky130_fd_sc_hd__fill_1
XPHY_EDGE_ROW_15_Left_52 VGND VGND VPWR VPWR sky130_fd_sc_hd__decap_3
X_558_ net104 net3 VGND VGND VPWR VPWR _173_ sky130_fd_sc_hd__xnor2_1
X_627_ net112 _235_ _090_ VGND VGND VPWR VPWR _236_ sky130_fd_sc_hd__mux2_1
X_489_ net95 net26 VGND VGND VPWR VPWR _112_ sky130_fd_sc_hd__or2_1
XFILLER_0_13_98 VGND VPWR VPWR VGND sky130_ef_sc_hd__decap_12
XFILLER_0_13_32 VGND VGND VPWR VPWR sky130_fd_sc_hd__fill_1
XFILLER_0_1_188 VGND VGND VPWR VPWR sky130_fd_sc_hd__decap_8
XPHY_EDGE_ROW_0_Left_37 VGND VGND VPWR VPWR sky130_fd_sc_hd__decap_3
XFILLER_0_24_97 VGND VGND VPWR VPWR sky130_fd_sc_hd__decap_8
XFILLER_0_4_85 VGND VGND VPWR VPWR sky130_fd_sc_hd__fill_1
X_961_ clknet_3_6__leaf_clk _072_ VGND VGND VPWR VPWR contador_act\[5\] sky130_fd_sc_hd__dfxtp_1
X_892_ clknet_3_6__leaf_clk _003_ VGND VGND VPWR VPWR net93 sky130_fd_sc_hd__dfxtp_2
XFILLER_0_28_139 VGND VGND VPWR VPWR sky130_fd_sc_hd__fill_1
XFILLER_0_19_128 VGND VGND VPWR VPWR sky130_fd_sc_hd__decap_8
X_875_ _361_ _435_ VGND VGND VPWR VPWR _436_ sky130_fd_sc_hd__nor2_1
X_944_ clknet_3_0__leaf_clk _055_ VGND VGND VPWR VPWR net79 sky130_fd_sc_hd__dfxtp_1
XPHY_EDGE_ROW_3_Left_40 VGND VGND VPWR VPWR sky130_fd_sc_hd__decap_3
X_591_ net107 net6 VGND VGND VPWR VPWR _203_ sky130_fd_sc_hd__nor2_1
X_660_ net114 _210_ _216_ _265_ VGND VGND VPWR VPWR _022_ sky130_fd_sc_hd__o211a_1
XFILLER_0_21_167 VGND VGND VPWR VPWR sky130_fd_sc_hd__fill_1
XFILLER_0_21_156 VGND VGND VPWR VPWR sky130_fd_sc_hd__decap_3
Xhold11 net69 VGND VGND VPWR VPWR net141 sky130_fd_sc_hd__dlygate4sd3_1
Xhold22 net111 VGND VGND VPWR VPWR net152 sky130_fd_sc_hd__dlygate4sd3_1
XFILLER_0_32_97 VGND VPWR VPWR VGND sky130_ef_sc_hd__decap_12
XTAP_TAPCELL_ROW_29_181 VGND VPWR sky130_fd_sc_hd__tapvpwrvgnd_1
XFILLER_0_16_76 VGND VGND VPWR VPWR sky130_fd_sc_hd__decap_8
XFILLER_0_12_178 VGND VGND VPWR VPWR sky130_fd_sc_hd__fill_2
X_858_ net52 _360_ _409_ net87 VGND VGND VPWR VPWR _424_ sky130_fd_sc_hd__a22o_1
X_927_ clknet_3_0__leaf_clk _038_ VGND VGND VPWR VPWR net100 sky130_fd_sc_hd__dfxtp_1
X_789_ _360_ VGND VGND VPWR VPWR _376_ sky130_fd_sc_hd__clkbuf_4
XFILLER_0_8_117 VGND VGND VPWR VPWR sky130_fd_sc_hd__decap_4
Xoutput67 net67 VGND VGND VPWR VPWR product[0] sky130_fd_sc_hd__clkbuf_4
XFILLER_0_32_3 VGND VPWR VPWR VGND sky130_ef_sc_hd__decap_12
X_712_ net121 _115_ _309_ _311_ _158_ VGND VGND VPWR VPWR _312_ sky130_fd_sc_hd__a221o_1
Xoutput89 net89 VGND VGND VPWR VPWR product[2] sky130_fd_sc_hd__clkbuf_4
Xoutput78 net78 VGND VGND VPWR VPWR product[1] sky130_fd_sc_hd__clkbuf_4
X_643_ _248_ _249_ VGND VGND VPWR VPWR _250_ sky130_fd_sc_hd__xnor2_1
X_574_ _174_ _183_ VGND VGND VPWR VPWR _188_ sky130_fd_sc_hd__nand2_1
XFILLER_0_4_120 VGND VGND VPWR VPWR sky130_fd_sc_hd__decap_8
XFILLER_0_7_52 VGND VGND VPWR VPWR sky130_fd_sc_hd__decap_4
X_626_ _233_ _234_ VGND VGND VPWR VPWR _235_ sky130_fd_sc_hd__xnor2_1
X_557_ net103 _094_ _101_ _172_ VGND VGND VPWR VPWR _012_ sky130_fd_sc_hd__o211a_1
X_488_ net95 net26 VGND VGND VPWR VPWR _111_ sky130_fd_sc_hd__nand2_1
XFILLER_0_9_201 VGND VGND VPWR VPWR sky130_fd_sc_hd__fill_1
X_609_ _179_ _195_ _205_ VGND VGND VPWR VPWR _219_ sky130_fd_sc_hd__o21ai_1
X_891_ clknet_3_3__leaf_clk _002_ VGND VGND VPWR VPWR net92 sky130_fd_sc_hd__dfxtp_2
X_960_ clknet_3_3__leaf_clk _071_ VGND VGND VPWR VPWR contador_act\[4\] sky130_fd_sc_hd__dfxtp_1
XFILLER_0_4_53 VGND VGND VPWR VPWR sky130_fd_sc_hd__fill_2
XFILLER_0_4_64 VGND VGND VPWR VPWR sky130_fd_sc_hd__fill_2
XFILLER_0_36_195 VGND VGND VPWR VPWR sky130_fd_sc_hd__fill_1
XFILLER_0_28_118 VGND VGND VPWR VPWR sky130_fd_sc_hd__fill_2
XFILLER_0_19_54 VGND VGND VPWR VPWR sky130_fd_sc_hd__fill_2
XFILLER_0_10_45 VGND VGND VPWR VPWR sky130_fd_sc_hd__fill_1
XFILLER_0_35_20 VGND VGND VPWR VPWR sky130_fd_sc_hd__fill_2
XFILLER_0_33_165 VGND VGND VPWR VPWR sky130_fd_sc_hd__decap_3
XFILLER_0_33_121 VGND VGND VPWR VPWR sky130_fd_sc_hd__fill_2
XFILLER_0_18_195 VGND VGND VPWR VPWR sky130_fd_sc_hd__fill_1
XFILLER_0_18_173 VGND VGND VPWR VPWR sky130_fd_sc_hd__fill_1
X_874_ contador_act\[0\] _434_ VGND VGND VPWR VPWR _435_ sky130_fd_sc_hd__and2_1
X_943_ clknet_3_2__leaf_clk _054_ VGND VGND VPWR VPWR net77 sky130_fd_sc_hd__dfxtp_1
X_590_ net107 net6 VGND VGND VPWR VPWR _202_ sky130_fd_sc_hd__and2_1
Xhold23 net109 VGND VGND VPWR VPWR net153 sky130_fd_sc_hd__dlygate4sd3_1
Xhold12 net94 VGND VGND VPWR VPWR net142 sky130_fd_sc_hd__dlygate4sd3_1
XFILLER_0_15_165 VGND VGND VPWR VPWR sky130_fd_sc_hd__decap_3
XFILLER_0_15_154 VGND VGND VPWR VPWR sky130_fd_sc_hd__decap_4
X_788_ _375_ VGND VGND VPWR VPWR _040_ sky130_fd_sc_hd__clkbuf_1
XFILLER_0_16_22 VGND VGND VPWR VPWR sky130_fd_sc_hd__decap_6
X_926_ clknet_3_0__leaf_clk _037_ VGND VGND VPWR VPWR net89 sky130_fd_sc_hd__dfxtp_1
X_857_ _423_ VGND VGND VPWR VPWR _061_ sky130_fd_sc_hd__clkbuf_1
X_642_ _240_ _242_ _238_ VGND VGND VPWR VPWR _249_ sky130_fd_sc_hd__a21boi_1
X_573_ _161_ _186_ _173_ _167_ VGND VGND VPWR VPWR _187_ sky130_fd_sc_hd__or4b_1
XPHY_EDGE_ROW_28_Right_28 VGND VGND VPWR VPWR sky130_fd_sc_hd__decap_3
XPHY_EDGE_ROW_19_Right_19 VGND VGND VPWR VPWR sky130_fd_sc_hd__decap_3
X_711_ _308_ _310_ _108_ VGND VGND VPWR VPWR _311_ sky130_fd_sc_hd__a21oi_1
Xoutput79 net79 VGND VGND VPWR VPWR product[20] sky130_fd_sc_hd__clkbuf_4
Xoutput68 net68 VGND VGND VPWR VPWR product[10] sky130_fd_sc_hd__clkbuf_4
Xclkbuf_3_1__f_clk clknet_0_clk VGND VGND VPWR VPWR clknet_3_1__leaf_clk sky130_fd_sc_hd__clkbuf_16
X_909_ clknet_3_7__leaf_clk _020_ VGND VGND VPWR VPWR net112 sky130_fd_sc_hd__dfxtp_1
XFILLER_0_27_65 VGND VGND VPWR VPWR sky130_fd_sc_hd__decap_4
XFILLER_0_27_54 VGND VGND VPWR VPWR sky130_fd_sc_hd__fill_2
XFILLER_0_27_32 VGND VGND VPWR VPWR sky130_fd_sc_hd__fill_1
XFILLER_0_11_9 VGND VGND VPWR VPWR sky130_fd_sc_hd__fill_1
XFILLER_0_7_86 VGND VPWR VPWR VGND sky130_ef_sc_hd__decap_12
XTAP_TAPCELL_ROW_9_109 VGND VPWR sky130_fd_sc_hd__tapvpwrvgnd_1
X_625_ _224_ _228_ VGND VGND VPWR VPWR _234_ sky130_fd_sc_hd__nor2_1
X_556_ net104 _095_ _170_ _171_ _158_ VGND VGND VPWR VPWR _172_ sky130_fd_sc_hd__a221o_1
X_487_ net142 _094_ _101_ _110_ VGND VGND VPWR VPWR _004_ sky130_fd_sc_hd__o211a_1
XFILLER_0_1_113 VGND VGND VPWR VPWR sky130_fd_sc_hd__decap_8
XTAP_TAPCELL_ROW_20_147 VGND VPWR sky130_fd_sc_hd__tapvpwrvgnd_1
X_539_ _154_ _155_ _108_ VGND VGND VPWR VPWR _157_ sky130_fd_sc_hd__a21oi_1
X_608_ _181_ _195_ _196_ _217_ VGND VGND VPWR VPWR _218_ sky130_fd_sc_hd__or4_1
XFILLER_0_4_21 VGND VGND VPWR VPWR sky130_fd_sc_hd__decap_6
XFILLER_0_36_141 VGND VGND VPWR VPWR sky130_fd_sc_hd__fill_2
X_890_ clknet_3_3__leaf_clk _001_ VGND VGND VPWR VPWR estado_act\[1\] sky130_fd_sc_hd__dfxtp_1
XFILLER_0_3_208 VGND VGND VPWR VPWR sky130_fd_sc_hd__decap_4
XFILLER_0_27_163 VGND VGND VPWR VPWR sky130_fd_sc_hd__decap_4
XFILLER_0_19_108 VGND VGND VPWR VPWR sky130_fd_sc_hd__fill_1
XFILLER_0_33_111 VGND VGND VPWR VPWR sky130_fd_sc_hd__fill_1
XFILLER_0_18_141 VGND VPWR VPWR VGND sky130_ef_sc_hd__decap_12
X_873_ estado_act\[1\] estado_act\[0\] _074_ _080_ VGND VGND VPWR VPWR _434_ sky130_fd_sc_hd__o211a_1
X_942_ clknet_3_2__leaf_clk _053_ VGND VGND VPWR VPWR net76 sky130_fd_sc_hd__dfxtp_1
XFILLER_0_1_55 VGND VGND VPWR VPWR sky130_fd_sc_hd__fill_1
XFILLER_0_30_169 VGND VGND VPWR VPWR sky130_fd_sc_hd__decap_8
XFILLER_0_30_147 VGND VGND VPWR VPWR sky130_fd_sc_hd__fill_1
Xhold13 net92 VGND VGND VPWR VPWR net143 sky130_fd_sc_hd__dlygate4sd3_1
XFILLER_0_15_133 VGND VPWR VPWR VGND sky130_ef_sc_hd__decap_12
XFILLER_0_15_111 VGND VGND VPWR VPWR sky130_fd_sc_hd__fill_1
Xhold24 net84 VGND VGND VPWR VPWR net154 sky130_fd_sc_hd__dlygate4sd3_1
XFILLER_0_29_214 VGND VGND VPWR VPWR sky130_fd_sc_hd__fill_2
X_787_ net159 _374_ _000_ VGND VGND VPWR VPWR _375_ sky130_fd_sc_hd__mux2_1
XFILLER_0_21_169 VGND VGND VPWR VPWR sky130_fd_sc_hd__decap_6
XFILLER_0_21_125 VGND VGND VPWR VPWR sky130_fd_sc_hd__decap_8
X_925_ clknet_3_2__leaf_clk _036_ VGND VGND VPWR VPWR net78 sky130_fd_sc_hd__dfxtp_1
X_856_ net85 _422_ _407_ VGND VGND VPWR VPWR _423_ sky130_fd_sc_hd__mux2_1
XFILLER_0_18_3 VGND VGND VPWR VPWR sky130_fd_sc_hd__fill_2
XFILLER_0_7_141 VGND VGND VPWR VPWR sky130_fd_sc_hd__decap_6
X_641_ _246_ _247_ VGND VGND VPWR VPWR _248_ sky130_fd_sc_hd__or2b_1
X_572_ net101 net31 net32 net102 VGND VGND VPWR VPWR _186_ sky130_fd_sc_hd__a22oi_1
Xoutput69 net69 VGND VGND VPWR VPWR product[11] sky130_fd_sc_hd__clkbuf_4
X_710_ _292_ _295_ _298_ _305_ VGND VGND VPWR VPWR _310_ sky130_fd_sc_hd__a31o_1
XFILLER_0_32_209 VGND VGND VPWR VPWR sky130_fd_sc_hd__decap_6
XTAP_TAPCELL_ROW_32_189 VGND VPWR sky130_fd_sc_hd__tapvpwrvgnd_1
X_908_ clknet_3_6__leaf_clk _019_ VGND VGND VPWR VPWR net110 sky130_fd_sc_hd__dfxtp_2
X_839_ _411_ VGND VGND VPWR VPWR _055_ sky130_fd_sc_hd__clkbuf_1
XFILLER_0_7_98 VGND VPWR VPWR VGND sky130_ef_sc_hd__decap_12
XFILLER_0_7_3 VGND VGND VPWR VPWR sky130_fd_sc_hd__fill_1
X_624_ _231_ _232_ VGND VGND VPWR VPWR _233_ sky130_fd_sc_hd__nor2_1
X_555_ _167_ _169_ _089_ VGND VGND VPWR VPWR _171_ sky130_fd_sc_hd__o21a_1
X_486_ net95 _095_ _107_ _109_ _099_ VGND VGND VPWR VPWR _110_ sky130_fd_sc_hd__a221o_1
XFILLER_0_13_68 VGND VPWR VPWR VGND sky130_ef_sc_hd__decap_12
XTAP_TAPCELL_ROW_20_148 VGND VPWR sky130_fd_sc_hd__tapvpwrvgnd_1
XPHY_EDGE_ROW_19_Left_56 VGND VGND VPWR VPWR sky130_fd_sc_hd__decap_3
XFILLER_0_9_214 VGND VGND VPWR VPWR sky130_fd_sc_hd__fill_1
X_607_ _202_ _203_ _211_ VGND VGND VPWR VPWR _217_ sky130_fd_sc_hd__or3_1
X_538_ _154_ _155_ VGND VGND VPWR VPWR _156_ sky130_fd_sc_hd__or2_1
XFILLER_0_24_67 VGND VGND VPWR VPWR sky130_fd_sc_hd__fill_1
XFILLER_0_24_56 VGND VGND VPWR VPWR sky130_fd_sc_hd__decap_4
X_469_ _084_ VGND VGND VPWR VPWR _094_ sky130_fd_sc_hd__clkbuf_4
XFILLER_0_6_217 VGND VGND VPWR VPWR sky130_fd_sc_hd__fill_2
XFILLER_0_36_197 VGND VGND VPWR VPWR sky130_fd_sc_hd__fill_2
XFILLER_0_10_25 VGND VGND VPWR VPWR sky130_fd_sc_hd__decap_3
XFILLER_0_35_55 VGND VGND VPWR VPWR sky130_fd_sc_hd__fill_1
XFILLER_0_27_175 VGND VPWR VPWR VGND sky130_ef_sc_hd__decap_12
XFILLER_0_18_197 VGND VGND VPWR VPWR sky130_fd_sc_hd__decap_6
XFILLER_0_18_153 VGND VPWR VPWR VGND sky130_ef_sc_hd__decap_12
X_941_ clknet_3_3__leaf_clk _052_ VGND VGND VPWR VPWR net75 sky130_fd_sc_hd__dfxtp_1
XFILLER_0_21_79 VGND VGND VPWR VPWR sky130_fd_sc_hd__fill_2
X_872_ _433_ VGND VGND VPWR VPWR _066_ sky130_fd_sc_hd__clkbuf_1
XFILLER_0_30_126 VGND VGND VPWR VPWR sky130_fd_sc_hd__decap_4
XFILLER_0_15_145 VGND VGND VPWR VPWR sky130_fd_sc_hd__fill_1
Xhold25 net118 VGND VGND VPWR VPWR net155 sky130_fd_sc_hd__dlygate4sd3_1
Xhold14 net75 VGND VGND VPWR VPWR net144 sky130_fd_sc_hd__dlygate4sd3_1